49830793
  -OEChem-10052115183D

 27 29  0     0  0  0  0  0  0999 V2000
   -3.3091    0.7579   -0.1786 S   0  0  0  0  0  0  0  0  0  0  0  0
    4.0653   -1.5239   -1.8402 F   0  0  0  0  0  0  0  0  0  0  0  0
   -2.6852   -3.1054    0.1436 O   0  0  0  0  0  0  0  0  0  0  0  0
   -4.6429   -1.9729   -0.0845 O   0  0  0  0  0  0  0  0  0  0  0  0
   -0.3077    3.4357   -0.1449 N   0  0  0  0  0  0  0  0  0  0  0  0
   -0.7333    0.6744    0.0227 C   0  0  0  0  0  0  0  0  0  0  0  0
    0.5740    1.1939    0.0845 C   0  0  0  0  0  0  0  0  0  0  0  0
   -1.7930    1.5744   -0.1228 C   0  0  0  0  0  0  0  0  0  0  0  0
    1.7097    0.3180    0.2324 C   0  0  0  0  0  0  0  0  0  0  0  0
   -1.2067   -0.6790    0.0843 C   0  0  0  0  0  0  0  0  0  0  0  0
   -2.5749   -0.7717   -0.0129 C   0  0  0  0  0  0  0  0  0  0  0  0
    0.7143    2.5694   -0.0044 C   0  0  0  0  0  0  0  0  0  0  0  0
   -1.5669    2.9497   -0.2051 C   0  0  0  0  0  0  0  0  0  0  0  0
    2.3501   -0.1903   -0.8978 C   0  0  0  0  0  0  0  0  0  0  0  0
    2.1699   -0.0189    1.5054 C   0  0  0  0  0  0  0  0  0  0  0  0
    3.4506   -1.0353   -0.7552 C   0  0  0  0  0  0  0  0  0  0  0  0
    3.2703   -0.8643    1.6481 C   0  0  0  0  0  0  0  0  0  0  0  0
    3.9108   -1.3723    0.5178 C   0  0  0  0  0  0  0  0  0  0  0  0
   -3.3952   -1.9392    0.0076 C   0  0  0  0  0  0  0  0  0  0  0  0
   -0.5601   -1.5414    0.1953 H   0  0  0  0  0  0  0  0  0  0  0  0
    1.6940    3.0380    0.0358 H   0  0  0  0  0  0  0  0  0  0  0  0
   -2.3636    3.6747   -0.3180 H   0  0  0  0  0  0  0  0  0  0  0  0
    2.0047    0.0621   -1.8976 H   0  0  0  0  0  0  0  0  0  0  0  0
    1.6825    0.3685    2.3970 H   0  0  0  0  0  0  0  0  0  0  0  0
    3.6286   -1.1269    2.6392 H   0  0  0  0  0  0  0  0  0  0  0  0
    4.7675   -2.0304    0.6286 H   0  0  0  0  0  0  0  0  0  0  0  0
   -3.2756   -3.8889    0.1542 H   0  0  0  0  0  0  0  0  0  0  0  0
  1  8  1  0  0  0  0
  1 11  1  0  0  0  0
  2 16  1  0  0  0  0
  3 19  1  0  0  0  0
  3 27  1  0  0  0  0
  4 19  2  0  0  0  0
  5 12  1  0  0  0  0
  5 13  2  0  0  0  0
  6  7  1  0  0  0  0
  6  8  2  0  0  0  0
  6 10  1  0  0  0  0
  7  9  1  0  0  0  0
  7 12  2  0  0  0  0
  8 13  1  0  0  0  0
  9 14  2  0  0  0  0
  9 15  1  0  0  0  0
 10 11  2  0  0  0  0
 10 20  1  0  0  0  0
 11 19  1  0  0  0  0
 12 21  1  0  0  0  0
 13 22  1  0  0  0  0
 14 16  1  0  0  0  0
 14 23  1  0  0  0  0
 15 17  2  0  0  0  0
 15 24  1  0  0  0  0
 16 18  2  0  0  0  0
 17 18  1  0  0  0  0
 17 25  1  0  0  0  0
 18 26  1  0  0  0  0
M  END
> <PUBCHEM_COMPOUND_CID>
49830793

> <PUBCHEM_CONFORMER_RMSD>
0.6

> <PUBCHEM_CONFORMER_DIVERSEORDER>
1
6
9
4
10
5
3
7
8
2

> <PUBCHEM_MMFF94_PARTIAL_CHARGES>
24
1 -0.08
10 -0.15
11 -0.05
12 0.16
13 0.16
14 -0.15
15 -0.15
16 0.19
17 -0.15
18 -0.15
19 0.81
2 -0.19
20 0.15
21 0.15
22 0.15
23 0.15
24 0.15
25 0.15
26 0.15
27 0.5
3 -0.65
4 -0.57
5 -0.62
8 0.04

> <PUBCHEM_EFFECTIVE_ROTOR_COUNT>
2

> <PUBCHEM_PHARMACOPHORE_FEATURES>
7
1 3 acceptor
1 4 acceptor
1 5 acceptor
3 3 4 19 anion
5 1 6 8 10 11 rings
6 5 6 7 8 12 13 rings
6 9 14 15 16 17 18 rings

> <PUBCHEM_HEAVY_ATOM_COUNT>
19

> <PUBCHEM_ATOM_DEF_STEREO_COUNT>
0

> <PUBCHEM_ATOM_UDEF_STEREO_COUNT>
0

> <PUBCHEM_BOND_DEF_STEREO_COUNT>
0

> <PUBCHEM_BOND_UDEF_STEREO_COUNT>
0

> <PUBCHEM_ISOTOPIC_ATOM_COUNT>
0

> <PUBCHEM_COMPONENT_COUNT>
1

> <PUBCHEM_CACTVS_TAUTO_COUNT>
1

> <PUBCHEM_CONFORMER_ID>
02F85B8900000001

> <PUBCHEM_MMFF94_ENERGY>
48.7101

> <PUBCHEM_FEATURE_SELFOVERLAP>
35.643

> <PUBCHEM_SHAPE_FINGERPRINT>
10319926 262 18051946188386101634
10616163 171 18265894666333806378
11582403 64 15896078682145456176
116883 192 18412261761718414029
12236239 1 17459476537722578632
12363563 72 18410008870724767519
12553582 1 18408045121593551619
12714826 92 18040431075579254757
13140716 1 18411695500366625073
13538477 17 18043246847422158960
14178342 30 18191569870913755242
14790565 3 18050578348102292901
14863182 85 16819965785741408527
15042514 8 18265052436273991353
15342816 4 18334008419499933594
15442244 35 18338799039397261481
15885798 251 18410291445619080123
16752209 62 18117547432216850217
16945 1 18265608784467358001
17804303 29 18341331115380052865
19049666 15 17485078597145096216
19591789 44 17547579176037749953
20291156 8 18335700576426752883
20600515 1 18267568144379751496
20645477 70 18049436247778626879
20871998 22 18339639057089664937
20871999 31 18335709325116756054
21452121 199 18337101388410704992
21634736 98 18187654617270592156
23184049 29 18409158935198627049
23366157 5 17970346134024365677
23557571 272 18271799069882150312
23559900 14 18126563410996342814
2748010 2 18339063995449937525
3084891 72 18194108626203798197
3091708 16 9567872665406523785
314173 41 18263928911315609051
458136 41 16971684611698177841
5902787 121 18336539494992559576
602551 16 18267860584802964666
6049 1 17988638546051260792
7364860 26 18052257594072155073
77492 1 17387420030285165232
7970288 3 18409445916403403019
81228 2 18269550555254398145
9709674 26 18127125269574604806

> <PUBCHEM_SHAPE_MULTIPOLES>
370.87
7.38
3.32
1.1
1.29
1.27
0
-6.24
-0.55
-3.07
-0.16
1.56
-0.34
0.35

> <PUBCHEM_SHAPE_SELFOVERLAP>
816.888

> <PUBCHEM_SHAPE_VOLUME>
202.1

> <PUBCHEM_COORDINATE_TYPE>
2
5
10

$$$$
