49830649
  -OEChem-10052120443D

 70 73  0     0  0  0  0  0  0999 V2000
   -0.1192   -3.2732   -0.3897 O   0  0  0  0  0  0  0  0  0  0  0  0
    1.2035    4.7333   -0.7075 O   0  0  0  0  0  0  0  0  0  0  0  0
   -1.1362    3.9438   -2.4337 O   0  0  0  0  0  0  0  0  0  0  0  0
    3.0010   -0.3415    0.3508 N   0  0  0  0  0  0  0  0  0  0  0  0
    4.2663   -0.6683    0.0370 N   0  0  0  0  0  0  0  0  0  0  0  0
    0.7068   -1.2068    0.3289 N   0  0  0  0  0  0  0  0  0  0  0  0
   -0.6785    3.9117    0.4091 N   0  0  0  0  0  0  0  0  0  0  0  0
   -1.5522   -1.6389    0.4817 N   0  0  0  0  0  0  0  0  0  0  0  0
    5.3449   -2.6280   -0.9134 C   0  0  0  0  0  0  0  0  0  0  0  0
    4.1477   -1.9061   -0.4508 C   0  0  0  0  0  0  0  0  0  0  0  0
    5.2433   -3.0179   -2.4279 C   0  0  0  0  0  0  0  0  0  0  0  0
    5.5706   -3.9580   -0.1158 C   0  0  0  0  0  0  0  0  0  0  0  0
    6.7083   -1.8530   -0.7912 C   0  0  0  0  0  0  0  0  0  0  0  0
    2.8171   -2.3660   -0.4485 C   0  0  0  0  0  0  0  0  0  0  0  0
    2.0946   -1.3241    0.0797 C   0  0  0  0  0  0  0  0  0  0  0  0
    2.7294    0.9116    0.9027 C   0  0  0  0  0  0  0  0  0  0  0  0
    1.8673    1.7905    0.2470 C   0  0  0  0  0  0  0  0  0  0  0  0
    3.3195    1.2847    2.1105 C   0  0  0  0  0  0  0  0  0  0  0  0
    1.5950    3.0423    0.7989 C   0  0  0  0  0  0  0  0  0  0  0  0
   -0.2978   -2.1578    0.0888 C   0  0  0  0  0  0  0  0  0  0  0  0
    3.0470    2.5364    2.6626 C   0  0  0  0  0  0  0  0  0  0  0  0
    2.1849    3.4153    2.0067 C   0  0  0  0  0  0  0  0  0  0  0  0
    0.6967    3.9595    0.1156 C   0  0  0  0  0  0  0  0  0  0  0  0
   -2.8086   -2.2535    0.4147 C   0  0  0  0  0  0  0  0  0  0  0  0
   -1.6452    4.7899   -0.2466 C   0  0  0  0  0  0  0  0  0  0  0  0
   -3.9872   -1.5107    0.2375 C   0  0  0  0  0  0  0  0  0  0  0  0
   -5.2290   -2.1869    0.1775 C   0  0  0  0  0  0  0  0  0  0  0  0
   -1.2309    2.9839    1.3861 C   0  0  0  0  0  0  0  0  0  0  0  0
   -2.8536   -3.6431    0.5309 C   0  0  0  0  0  0  0  0  0  0  0  0
   -2.1977    4.1634   -1.5138 C   0  0  0  0  0  0  0  0  0  0  0  0
   -3.9607   -0.1116    0.1186 C   0  0  0  0  0  0  0  0  0  0  0  0
   -5.2555   -3.5860    0.2963 C   0  0  0  0  0  0  0  0  0  0  0  0
   -4.0748   -4.3080    0.4719 C   0  0  0  0  0  0  0  0  0  0  0  0
   -6.4076   -1.4441    0.0004 C   0  0  0  0  0  0  0  0  0  0  0  0
   -5.1414    0.6105   -0.0569 C   0  0  0  0  0  0  0  0  0  0  0  0
   -6.3626   -0.0545   -0.1159 C   0  0  0  0  0  0  0  0  0  0  0  0
   -1.6055    3.3617   -3.6421 C   0  0  0  0  0  0  0  0  0  0  0  0
    6.1360   -3.5557   -2.7667 H   0  0  0  0  0  0  0  0  0  0  0  0
    4.3770   -3.6637   -2.6117 H   0  0  0  0  0  0  0  0  0  0  0  0
    5.1271   -2.1235   -3.0510 H   0  0  0  0  0  0  0  0  0  0  0  0
    4.7148   -4.6339   -0.2258 H   0  0  0  0  0  0  0  0  0  0  0  0
    6.4619   -4.4915   -0.4650 H   0  0  0  0  0  0  0  0  0  0  0  0
    5.6938   -3.7518    0.9538 H   0  0  0  0  0  0  0  0  0  0  0  0
    7.5496   -2.4541   -1.1546 H   0  0  0  0  0  0  0  0  0  0  0  0
    6.6824   -0.9248   -1.3740 H   0  0  0  0  0  0  0  0  0  0  0  0
    6.9124   -1.5860    0.2523 H   0  0  0  0  0  0  0  0  0  0  0  0
    2.4457   -3.3229   -0.7848 H   0  0  0  0  0  0  0  0  0  0  0  0
    0.4114   -0.3318    0.7511 H   0  0  0  0  0  0  0  0  0  0  0  0
    1.4100    1.5125   -0.7008 H   0  0  0  0  0  0  0  0  0  0  0  0
    3.9904    0.6106    2.6376 H   0  0  0  0  0  0  0  0  0  0  0  0
    3.5052    2.8263    3.6036 H   0  0  0  0  0  0  0  0  0  0  0  0
    1.9794    4.3880    2.4461 H   0  0  0  0  0  0  0  0  0  0  0  0
   -1.5442   -0.6434    0.6757 H   0  0  0  0  0  0  0  0  0  0  0  0
   -2.4481    5.0316    0.4580 H   0  0  0  0  0  0  0  0  0  0  0  0
   -1.1280    5.7215   -0.5037 H   0  0  0  0  0  0  0  0  0  0  0  0
   -2.0985    2.4823    0.9505 H   0  0  0  0  0  0  0  0  0  0  0  0
   -0.5286    2.2193    1.7179 H   0  0  0  0  0  0  0  0  0  0  0  0
   -1.5555    3.5606    2.2578 H   0  0  0  0  0  0  0  0  0  0  0  0
   -1.9678   -4.2437    0.7107 H   0  0  0  0  0  0  0  0  0  0  0  0
   -2.6893    3.2097   -1.2893 H   0  0  0  0  0  0  0  0  0  0  0  0
   -2.9341    4.8401   -1.9621 H   0  0  0  0  0  0  0  0  0  0  0  0
   -3.0397    0.4610    0.1390 H   0  0  0  0  0  0  0  0  0  0  0  0
   -6.1989   -4.1266    0.2552 H   0  0  0  0  0  0  0  0  0  0  0  0
   -4.1108   -5.3890    0.5721 H   0  0  0  0  0  0  0  0  0  0  0  0
   -7.3733   -1.9430   -0.0489 H   0  0  0  0  0  0  0  0  0  0  0  0
   -5.1067    1.6920   -0.1518 H   0  0  0  0  0  0  0  0  0  0  0  0
   -7.2813    0.5081   -0.2536 H   0  0  0  0  0  0  0  0  0  0  0  0
   -2.0632    2.3873   -3.4457 H   0  0  0  0  0  0  0  0  0  0  0  0
   -2.3243    4.0243   -4.1337 H   0  0  0  0  0  0  0  0  0  0  0  0
   -0.7511    3.2175   -4.3088 H   0  0  0  0  0  0  0  0  0  0  0  0
  1 20  2  0  0  0  0
  2 23  2  0  0  0  0
  3 30  1  0  0  0  0
  3 37  1  0  0  0  0
  4  5  1  0  0  0  0
  4 15  1  0  0  0  0
  4 16  1  0  0  0  0
  5 10  2  0  0  0  0
  6 15  1  0  0  0  0
  6 20  1  0  0  0  0
  6 48  1  0  0  0  0
  7 23  1  0  0  0  0
  7 25  1  0  0  0  0
  7 28  1  0  0  0  0
  8 20  1  0  0  0  0
  8 24  1  0  0  0  0
  8 53  1  0  0  0  0
  9 10  1  0  0  0  0
  9 11  1  0  0  0  0
  9 12  1  0  0  0  0
  9 13  1  0  0  0  0
 10 14  1  0  0  0  0
 11 38  1  0  0  0  0
 11 39  1  0  0  0  0
 11 40  1  0  0  0  0
 12 41  1  0  0  0  0
 12 42  1  0  0  0  0
 12 43  1  0  0  0  0
 13 44  1  0  0  0  0
 13 45  1  0  0  0  0
 13 46  1  0  0  0  0
 14 15  2  0  0  0  0
 14 47  1  0  0  0  0
 16 17  1  0  0  0  0
 16 18  2  0  0  0  0
 17 19  2  0  0  0  0
 17 49  1  0  0  0  0
 18 21  1  0  0  0  0
 18 50  1  0  0  0  0
 19 22  1  0  0  0  0
 19 23  1  0  0  0  0
 21 22  2  0  0  0  0
 21 51  1  0  0  0  0
 22 52  1  0  0  0  0
 24 26  1  0  0  0  0
 24 29  2  0  0  0  0
 25 30  1  0  0  0  0
 25 54  1  0  0  0  0
 25 55  1  0  0  0  0
 26 27  1  0  0  0  0
 26 31  2  0  0  0  0
 27 32  1  0  0  0  0
 27 34  2  0  0  0  0
 28 56  1  0  0  0  0
 28 57  1  0  0  0  0
 28 58  1  0  0  0  0
 29 33  1  0  0  0  0
 29 59  1  0  0  0  0
 30 60  1  0  0  0  0
 30 61  1  0  0  0  0
 31 35  1  0  0  0  0
 31 62  1  0  0  0  0
 32 33  2  0  0  0  0
 32 63  1  0  0  0  0
 33 64  1  0  0  0  0
 34 36  1  0  0  0  0
 34 65  1  0  0  0  0
 35 36  2  0  0  0  0
 35 66  1  0  0  0  0
 36 67  1  0  0  0  0
 37 68  1  0  0  0  0
 37 69  1  0  0  0  0
 37 70  1  0  0  0  0
M  END
> <PUBCHEM_COMPOUND_CID>
49830649

> <PUBCHEM_CONFORMER_RMSD>
1.2

> <PUBCHEM_CONFORMER_DIVERSEORDER>
1
23
52
58
28
14
38
43
32
55
42
57
37
11
34
18
20
6
45
40
41
53
62
59
44
51
61
13
46
26
17
22
15
54
50
25
9
27
7
47
10
35
29
4
49
60
21
12
24
39
48
19
2
56
5
36
30
3
16
8
31
33

> <PUBCHEM_MMFF94_PARTIAL_CHARGES>
46
1 -0.57
10 0.11
14 -0.15
15 -0.09
16 -0.02
17 -0.15
18 -0.15
19 0.09
2 -0.57
20 0.69
21 -0.15
22 -0.15
23 0.54
24 0.12
25 0.3
28 0.3
29 -0.15
3 -0.56
30 0.28
31 -0.15
32 -0.15
33 -0.15
34 -0.15
35 -0.15
36 -0.15
37 0.28
4 0.59
47 0.15
48 0.37
49 0.15
5 -0.71
50 0.15
51 0.15
52 0.15
53 0.37
59 0.15
6 -0.49
62 0.15
63 0.15
64 0.15
65 0.15
66 0.15
67 0.15
7 -0.66
8 -0.55
9 0.18

> <PUBCHEM_EFFECTIVE_ROTOR_COUNT>
11

> <PUBCHEM_PHARMACOPHORE_FEATURES>
11
1 1 acceptor
1 2 acceptor
1 3 acceptor
1 5 acceptor
1 6 donor
1 8 donor
4 9 11 12 13 hydrophobe
5 4 5 10 14 15 rings
6 16 17 18 19 21 22 rings
6 24 26 27 29 32 33 rings
6 26 27 31 34 35 36 rings

> <PUBCHEM_HEAVY_ATOM_COUNT>
37

> <PUBCHEM_ATOM_DEF_STEREO_COUNT>
0

> <PUBCHEM_ATOM_UDEF_STEREO_COUNT>
0

> <PUBCHEM_BOND_DEF_STEREO_COUNT>
0

> <PUBCHEM_BOND_UDEF_STEREO_COUNT>
0

> <PUBCHEM_ISOTOPIC_ATOM_COUNT>
0

> <PUBCHEM_COMPONENT_COUNT>
1

> <PUBCHEM_CACTVS_TAUTO_COUNT>
7

> <PUBCHEM_CONFORMER_ID>
02F85AF900000001

> <PUBCHEM_MMFF94_ENERGY>
133.8131

> <PUBCHEM_FEATURE_SELFOVERLAP>
55.899

> <PUBCHEM_SHAPE_FINGERPRINT>
10864689 126 18192702359680341757
11093857 5 18195513797358244216
11093857 51 17541946837119049021
11513181 2 17986392398161342927
12925494 130 18412542125026348873
12978246 48 17762331823057184185
1361 87 18338787906441480981
150020 26 18052534675824596353
15264996 154 17758409847595583055
15320467 1 17834394906089806737
15400415 2 17187285111796660289
15419008 47 18409170986977028287
15975801 100 17243578581443862325
16067689 391 16909462200994963030
16993438 75 17903088737117224833
21049683 271 18270131248519208494
21133410 127 17756136040691610149
23559900 14 18342455971716058979
245318 6 16454599175727664525
3103668 31 18192436268675137733
3493558 16 18268995465786973905
4066623 53 18408609162410377956
4144715 1 18266182910374369379
42626532 9 18043264619834067195
4409770 3 17978518537918366370
550186 83 17750774701592870129
86090 222 17611699563239274245
9961470 85 18343579651710242513

> <PUBCHEM_SHAPE_MULTIPOLES>
718.93
13.9
8.3
1.98
2.84
6.28
1.24
-18.15
1.71
0.55
1.73
-1.41
2.77
5.22

> <PUBCHEM_SHAPE_SELFOVERLAP>
1545.644

> <PUBCHEM_SHAPE_VOLUME>
396.6

> <PUBCHEM_COORDINATE_TYPE>
2
5
10

$$$$
