49830736
  -OEChem-10052115193D

 58 61  0     1  0  0  0  0  0999 V2000
    7.4955   -1.2254   -0.6362 F   0  0  0  0  0  0  0  0  0  0  0  0
    6.1882   -2.8001    0.0978 F   0  0  0  0  0  0  0  0  0  0  0  0
    7.2304   -1.5038    1.4983 F   0  0  0  0  0  0  0  0  0  0  0  0
   -9.1416   -0.7171    2.0749 O   0  0  0  0  0  0  0  0  0  0  0  0
   -6.8672   -0.5852    2.1460 O   0  0  0  0  0  0  0  0  0  0  0  0
    0.0751   -2.0783   -0.5688 O   0  0  0  0  0  0  0  0  0  0  0  0
    6.8138    1.3129    0.7116 O   0  0  0  0  0  0  0  0  0  0  0  0
   -5.8857   -0.0185   -1.0401 N   0  0  0  0  0  0  0  0  0  0  0  0
    0.6000    0.0715   -0.2232 N   0  0  0  0  0  0  0  0  0  0  0  0
    1.4639   -2.0402   -0.3907 N   0  0  0  0  0  0  0  0  0  0  0  0
   -6.5270    1.2751   -0.9486 C   0  0  2  0  0  0  0  0  0  0  0  0
   -8.1344    1.0293    0.8704 C   0  0  1  0  0  0  0  0  0  0  0  0
   -6.7784    1.6488    0.5097 C   0  0  0  0  0  0  0  0  0  0  0  0
   -7.9248    1.2340   -1.5492 C   0  0  0  0  0  0  0  0  0  0  0  0
   -8.7996    0.6355   -0.4511 C   0  0  0  0  0  0  0  0  0  0  0  0
   -7.9462   -0.1626    1.7580 C   0  0  0  0  0  0  0  0  0  0  0  0
   -4.5224   -0.2098   -0.8968 C   0  0  0  0  0  0  0  0  0  0  0  0
   -3.6877    0.8802   -0.6498 C   0  0  0  0  0  0  0  0  0  0  0  0
   -3.9833   -1.4922   -0.9983 C   0  0  0  0  0  0  0  0  0  0  0  0
   -2.3141    0.6876   -0.5042 C   0  0  0  0  0  0  0  0  0  0  0  0
   -2.6096   -1.6847   -0.8528 C   0  0  0  0  0  0  0  0  0  0  0  0
   -1.7749   -0.5949   -0.6055 C   0  0  0  0  0  0  0  0  0  0  0  0
   -0.3541   -0.7941   -0.4552 C   0  0  0  0  0  0  0  0  0  0  0  0
    1.6970   -0.7394   -0.1920 C   0  0  0  0  0  0  0  0  0  0  0  0
    3.0127   -0.2171    0.0401 C   0  0  0  0  0  0  0  0  0  0  0  0
    5.3899   -0.5688    0.2900 C   0  0  0  0  0  0  0  0  0  0  0  0
    5.5712    0.7996    0.4906 C   0  0  0  0  0  0  0  0  0  0  0  0
    4.1107   -1.0772    0.0648 C   0  0  0  0  0  0  0  0  0  0  0  0
    7.2902    2.2806   -0.2215 C   0  0  0  0  0  0  0  0  0  0  0  0
    3.1941    1.1513    0.2409 C   0  0  0  0  0  0  0  0  0  0  0  0
    4.4733    1.6597    0.4661 C   0  0  0  0  0  0  0  0  0  0  0  0
    6.5541   -1.5036    0.3124 C   0  0  0  0  0  0  0  0  0  0  0  0
    7.5412    3.5941    0.5035 C   0  0  0  0  0  0  0  0  0  0  0  0
    8.5500    1.7531   -0.8911 C   0  0  0  0  0  0  0  0  0  0  0  0
   -5.9534    2.0396   -1.4837 H   0  0  0  0  0  0  0  0  0  0  0  0
   -8.7340    1.7626    1.4227 H   0  0  0  0  0  0  0  0  0  0  0  0
   -5.9561    1.3858    1.1815 H   0  0  0  0  0  0  0  0  0  0  0  0
   -6.8823    2.7410    0.5664 H   0  0  0  0  0  0  0  0  0  0  0  0
   -8.2662    2.2541   -1.7652 H   0  0  0  0  0  0  0  0  0  0  0  0
   -7.9837    0.6561   -2.4772 H   0  0  0  0  0  0  0  0  0  0  0  0
   -8.8552   -0.4529   -0.5745 H   0  0  0  0  0  0  0  0  0  0  0  0
   -9.8232    1.0200   -0.5152 H   0  0  0  0  0  0  0  0  0  0  0  0
   -6.4663   -0.8418   -1.1576 H   0  0  0  0  0  0  0  0  0  0  0  0
   -9.0394   -1.5016    2.6549 H   0  0  0  0  0  0  0  0  0  0  0  0
   -4.0542    1.8968   -0.5523 H   0  0  0  0  0  0  0  0  0  0  0  0
   -4.6228   -2.3502   -1.1903 H   0  0  0  0  0  0  0  0  0  0  0  0
   -1.6817    1.5507   -0.3100 H   0  0  0  0  0  0  0  0  0  0  0  0
   -2.2268   -2.6985   -0.9384 H   0  0  0  0  0  0  0  0  0  0  0  0
    3.9837   -2.1457   -0.0903 H   0  0  0  0  0  0  0  0  0  0  0  0
    6.5545    2.4657   -1.0163 H   0  0  0  0  0  0  0  0  0  0  0  0
    2.3585    1.8468    0.2299 H   0  0  0  0  0  0  0  0  0  0  0  0
    4.5924    2.7265    0.6308 H   0  0  0  0  0  0  0  0  0  0  0  0
    6.6257    3.9614    0.9777 H   0  0  0  0  0  0  0  0  0  0  0  0
    7.9086    4.3633   -0.1827 H   0  0  0  0  0  0  0  0  0  0  0  0
    8.2766    3.4612    1.3047 H   0  0  0  0  0  0  0  0  0  0  0  0
    8.3272    0.8581   -1.4795 H   0  0  0  0  0  0  0  0  0  0  0  0
    8.9875    2.4995   -1.5613 H   0  0  0  0  0  0  0  0  0  0  0  0
    9.2997    1.4661   -0.1458 H   0  0  0  0  0  0  0  0  0  0  0  0
  1 32  1  0  0  0  0
  2 32  1  0  0  0  0
  3 32  1  0  0  0  0
  4 16  1  0  0  0  0
  4 44  1  0  0  0  0
  5 16  2  0  0  0  0
  6 10  1  0  0  0  0
  6 23  1  0  0  0  0
  7 27  1  0  0  0  0
  7 29  1  0  0  0  0
  8 11  1  0  0  0  0
  8 17  1  0  0  0  0
  8 43  1  0  0  0  0
  9 23  2  0  0  0  0
  9 24  1  0  0  0  0
 10 24  2  0  0  0  0
 11 13  1  0  0  0  0
 11 14  1  0  0  0  0
 11 35  1  0  0  0  0
 12 13  1  0  0  0  0
 12 15  1  0  0  0  0
 12 16  1  0  0  0  0
 12 36  1  0  0  0  0
 13 37  1  0  0  0  0
 13 38  1  0  0  0  0
 14 15  1  0  0  0  0
 14 39  1  0  0  0  0
 14 40  1  0  0  0  0
 15 41  1  0  0  0  0
 15 42  1  0  0  0  0
 17 18  2  0  0  0  0
 17 19  1  0  0  0  0
 18 20  1  0  0  0  0
 18 45  1  0  0  0  0
 19 21  2  0  0  0  0
 19 46  1  0  0  0  0
 20 22  2  0  0  0  0
 20 47  1  0  0  0  0
 21 22  1  0  0  0  0
 21 48  1  0  0  0  0
 22 23  1  0  0  0  0
 24 25  1  0  0  0  0
 25 28  2  0  0  0  0
 25 30  1  0  0  0  0
 26 27  2  0  0  0  0
 26 28  1  0  0  0  0
 26 32  1  0  0  0  0
 27 31  1  0  0  0  0
 28 49  1  0  0  0  0
 29 33  1  0  0  0  0
 29 34  1  0  0  0  0
 29 50  1  0  0  0  0
 30 31  2  0  0  0  0
 30 51  1  0  0  0  0
 31 52  1  0  0  0  0
 33 53  1  0  0  0  0
 33 54  1  0  0  0  0
 33 55  1  0  0  0  0
 34 56  1  0  0  0  0
 34 57  1  0  0  0  0
 34 58  1  0  0  0  0
M  END
> <PUBCHEM_COMPOUND_CID>
49830736

> <PUBCHEM_CONFORMER_RMSD>
1

> <PUBCHEM_CONFORMER_DIVERSEORDER>
1
42
46
27
48
23
45
12
30
36
16
26
50
49
6
33
17
47
51
24
34
22
31
21
35
41
19
18
29
43
4
40
44
2
20
11
13
32
5
38
37
9
8
25
39
28
15
14
3
7
10

> <PUBCHEM_MMFF94_PARTIAL_CHARGES>
38
1 -0.34
10 -0.41
11 0.37
12 0.06
16 0.66
17 0.1
18 -0.15
19 -0.15
2 -0.34
20 -0.15
21 -0.15
22 0.05
23 0.43
24 0.46
25 0.05
26 -0.14
27 0.08
28 -0.15
29 0.28
3 -0.34
30 -0.15
31 -0.15
32 1.16
4 -0.65
43 0.4
44 0.5
45 0.15
46 0.15
47 0.15
48 0.15
49 0.15
5 -0.57
51 0.15
52 0.15
6 -0.02
7 -0.36
8 -0.87
9 -0.57

> <PUBCHEM_EFFECTIVE_ROTOR_COUNT>
9

> <PUBCHEM_PHARMACOPHORE_FEATURES>
12
1 4 acceptor
1 5 acceptor
1 7 acceptor
1 8 cation
1 8 donor
3 29 33 34 hydrophobe
3 4 5 16 anion
3 9 10 24 cation
5 11 12 13 14 15 rings
5 6 9 10 23 24 rings
6 17 18 19 20 21 22 rings
6 25 26 27 28 30 31 rings

> <PUBCHEM_HEAVY_ATOM_COUNT>
34

> <PUBCHEM_ATOM_DEF_STEREO_COUNT>
0

> <PUBCHEM_ATOM_UDEF_STEREO_COUNT>
2

> <PUBCHEM_BOND_DEF_STEREO_COUNT>
0

> <PUBCHEM_BOND_UDEF_STEREO_COUNT>
0

> <PUBCHEM_ISOTOPIC_ATOM_COUNT>
0

> <PUBCHEM_COMPONENT_COUNT>
1

> <PUBCHEM_CACTVS_TAUTO_COUNT>
4

> <PUBCHEM_CONFORMER_ID>
02F85B5000000001

> <PUBCHEM_MMFF94_ENERGY>
87.0354

> <PUBCHEM_FEATURE_SELFOVERLAP>
60.951

> <PUBCHEM_SHAPE_FINGERPRINT>
10 15 18261111881205289073
11181472 205 17775015557056139568
11408170 132 14404916755699137616
11456790 92 18341044134239419264
12082328 90 14189570824554003733
12089408 11 18060133237670480109
12539765 74 17918279748828197886
14849402 71 18271242819920000817
14856354 85 15554438623201186773
15183329 4 17418375796111272624
15301273 46 17821446837600657375
15461852 350 17203322356290851573
15510794 2 17676487241595132378
15554971 5 18130494310240228311
1577012 14 18343294903339996310
15840311 113 18334856108868779844
1754908 1 16877660162711403281
1768 4 18341333379234266105
195137 175 17917712430797979497
19611394 137 18114472231981421713
20501277 180 17560235976851422208
21781055 127 16702030737947998786
22149856 69 14635137968233183620
23576562 1 16199005396901773273
2747138 104 17458346325331376861
3711267 37 18342746242501162857
397830 11 17895199939309951163
4073 2 18261108608103281682
4112364 45 17676776482606275908
4169191 19 18202281395159878829
4197921 191 18342738490638490448
45377200 153 14924239196027118088
474113 269 13326311234479252124
504579 68 12175628369119986581
5758199 1 18412260644958247927
59682541 35 18040156236411574697
9689198 14 18187081754453491505
9953998 17 17822014195324602537

> <PUBCHEM_SHAPE_MULTIPOLES>
639.46
33.35
2.52
1.32
13.39
0.58
-0.51
14.07
-7.15
-5.93
0.03
3.2
-0.06
0.32

> <PUBCHEM_SHAPE_SELFOVERLAP>
1391.447

> <PUBCHEM_SHAPE_VOLUME>
351.4

> <PUBCHEM_COORDINATE_TYPE>
2
5
10

$$$$
