49830461
  -OEChem-10052115183D

 50 53  0     0  0  0  0  0  0999 V2000
   -0.8035   -0.0673   -1.7036 O   0  0  0  0  0  0  0  0  0  0  0  0
   -0.3204    2.1187   -1.0313 N   0  0  0  0  0  0  0  0  0  0  0  0
   -1.6164    0.1772    1.3932 N   0  0  0  0  0  0  0  0  0  0  0  0
   -1.2803   -0.3339    2.5886 N   0  0  0  0  0  0  0  0  0  0  0  0
    0.0196   -0.6054    2.5500 N   0  0  0  0  0  0  0  0  0  0  0  0
    5.6550   -0.9926   -0.5133 N   0  0  0  0  0  0  0  0  0  0  0  0
    5.5138   -1.8185   -1.5636 N   0  0  0  0  0  0  0  0  0  0  0  0
   -0.0348    3.0905    0.0222 C   0  0  0  0  0  0  0  0  0  0  0  0
   -0.5441    0.2478    0.5582 C   0  0  0  0  0  0  0  0  0  0  0  0
    0.4854   -0.2550    1.3133 C   0  0  0  0  0  0  0  0  0  0  0  0
   -0.5610    0.7417   -0.7813 C   0  0  0  0  0  0  0  0  0  0  0  0
   -2.9780    0.5709    1.1293 C   0  0  0  0  0  0  0  0  0  0  0  0
    1.8522   -0.4021    0.8943 C   0  0  0  0  0  0  0  0  0  0  0  0
   -1.1110    4.1680    0.0543 C   0  0  0  0  0  0  0  0  0  0  0  0
    1.3490    3.6979   -0.1716 C   0  0  0  0  0  0  0  0  0  0  0  0
   -0.3470    2.6486   -2.3874 C   0  0  0  0  0  0  0  0  0  0  0  0
    2.1498   -1.2120   -0.2089 C   0  0  0  0  0  0  0  0  0  0  0  0
   -3.7395   -0.4310    0.2974 C   0  0  0  0  0  0  0  0  0  0  0  0
    3.4919   -1.3417   -0.6034 C   0  0  0  0  0  0  0  0  0  0  0  0
    2.8630    0.2637    1.5899 C   0  0  0  0  0  0  0  0  0  0  0  0
    4.4788   -0.6677    0.1071 C   0  0  0  0  0  0  0  0  0  0  0  0
    4.2036    0.1445    1.2093 C   0  0  0  0  0  0  0  0  0  0  0  0
   -4.3235   -0.0377   -0.9068 C   0  0  0  0  0  0  0  0  0  0  0  0
   -3.8597   -1.7507    0.7325 C   0  0  0  0  0  0  0  0  0  0  0  0
    4.1966   -2.0286   -1.6152 C   0  0  0  0  0  0  0  0  0  0  0  0
   -5.0277   -0.9642   -1.6759 C   0  0  0  0  0  0  0  0  0  0  0  0
   -4.5638   -2.6772   -0.0365 C   0  0  0  0  0  0  0  0  0  0  0  0
   -5.1480   -2.2839   -1.2406 C   0  0  0  0  0  0  0  0  0  0  0  0
   -0.0398    2.5987    0.9978 H   0  0  0  0  0  0  0  0  0  0  0  0
   -2.9457    1.5505    0.6410 H   0  0  0  0  0  0  0  0  0  0  0  0
   -3.4908    0.7140    2.0884 H   0  0  0  0  0  0  0  0  0  0  0  0
   -0.9882    4.7974    0.9429 H   0  0  0  0  0  0  0  0  0  0  0  0
   -2.1135    3.7301    0.0922 H   0  0  0  0  0  0  0  0  0  0  0  0
   -1.0658    4.8330   -0.8144 H   0  0  0  0  0  0  0  0  0  0  0  0
    2.1088    2.9182   -0.2922 H   0  0  0  0  0  0  0  0  0  0  0  0
    1.6234    4.2995    0.7021 H   0  0  0  0  0  0  0  0  0  0  0  0
    1.4007    4.3588   -1.0428 H   0  0  0  0  0  0  0  0  0  0  0  0
    0.6244    3.0731   -2.6500 H   0  0  0  0  0  0  0  0  0  0  0  0
   -0.5626    1.8538   -3.1074 H   0  0  0  0  0  0  0  0  0  0  0  0
   -1.1323    3.4011   -2.4867 H   0  0  0  0  0  0  0  0  0  0  0  0
    1.3722   -1.7420   -0.7519 H   0  0  0  0  0  0  0  0  0  0  0  0
    2.6219    0.8936    2.4444 H   0  0  0  0  0  0  0  0  0  0  0  0
    4.9900    0.6616    1.7477 H   0  0  0  0  0  0  0  0  0  0  0  0
   -4.2365    0.9868   -1.2587 H   0  0  0  0  0  0  0  0  0  0  0  0
   -3.4197   -2.0736    1.6718 H   0  0  0  0  0  0  0  0  0  0  0  0
    3.8029   -2.6737   -2.3880 H   0  0  0  0  0  0  0  0  0  0  0  0
    6.5880   -0.6845   -0.2698 H   0  0  0  0  0  0  0  0  0  0  0  0
   -5.4820   -0.6582   -2.6137 H   0  0  0  0  0  0  0  0  0  0  0  0
   -4.6592   -3.7044    0.3031 H   0  0  0  0  0  0  0  0  0  0  0  0
   -5.6965   -3.0052   -1.8392 H   0  0  0  0  0  0  0  0  0  0  0  0
  1 11  2  0  0  0  0
  2  8  1  0  0  0  0
  2 11  1  0  0  0  0
  2 16  1  0  0  0  0
  3  4  1  0  0  0  0
  3  9  1  0  0  0  0
  3 12  1  0  0  0  0
  4  5  2  0  0  0  0
  5 10  1  0  0  0  0
  6  7  1  0  0  0  0
  6 21  1  0  0  0  0
  6 47  1  0  0  0  0
  7 25  2  0  0  0  0
  8 14  1  0  0  0  0
  8 15  1  0  0  0  0
  8 29  1  0  0  0  0
  9 10  2  0  0  0  0
  9 11  1  0  0  0  0
 10 13  1  0  0  0  0
 12 18  1  0  0  0  0
 12 30  1  0  0  0  0
 12 31  1  0  0  0  0
 13 17  2  0  0  0  0
 13 20  1  0  0  0  0
 14 32  1  0  0  0  0
 14 33  1  0  0  0  0
 14 34  1  0  0  0  0
 15 35  1  0  0  0  0
 15 36  1  0  0  0  0
 15 37  1  0  0  0  0
 16 38  1  0  0  0  0
 16 39  1  0  0  0  0
 16 40  1  0  0  0  0
 17 19  1  0  0  0  0
 17 41  1  0  0  0  0
 18 23  2  0  0  0  0
 18 24  1  0  0  0  0
 19 21  2  0  0  0  0
 19 25  1  0  0  0  0
 20 22  2  0  0  0  0
 20 42  1  0  0  0  0
 21 22  1  0  0  0  0
 22 43  1  0  0  0  0
 23 26  1  0  0  0  0
 23 44  1  0  0  0  0
 24 27  2  0  0  0  0
 24 45  1  0  0  0  0
 25 46  1  0  0  0  0
 26 28  2  0  0  0  0
 26 48  1  0  0  0  0
 27 28  1  0  0  0  0
 27 49  1  0  0  0  0
 28 50  1  0  0  0  0
M  END
> <PUBCHEM_COMPOUND_CID>
49830461

> <PUBCHEM_CONFORMER_RMSD>
0.8

> <PUBCHEM_CONFORMER_DIVERSEORDER>
8
29
131
145
128
75
43
101
58
79
85
134
137
14
91
73
90
93
117
62
114
57
86
118
77
28
129
37
65
38
89
76
121
49
104
146
139
18
21
95
142
82
36
16
119
126
54
45
138
70
103
81
135
110
87
108
100
120
72
40
44
136
140
1
133
122
69
144
78
96
88
94
64
132
20
35
98
111
105
92
30
99
63
47
55
127
7
116
19
83
11
67
41
143
68
102
53
148
141
39
24
13
15
71
9
123
23
60
147
17
97
61
34
125
48
84
66
115
109
50
52
31
59
42
2
130
80
27
22
113
74
107
106
12
10
112
3
46
25
32
26
56
51
124
6
4
5
33

> <PUBCHEM_MMFF94_PARTIAL_CHARGES>
35
1 -0.57
10 0.17
11 0.71
12 0.4
13 0.05
16 0.3
17 -0.15
18 -0.14
2 -0.66
20 -0.15
21 -0.15
22 -0.15
23 -0.15
24 -0.15
25 0.14
26 -0.15
27 -0.15
28 -0.15
3 0.31
4 -0.42
41 0.15
42 0.15
43 0.15
44 0.15
45 0.15
46 0.15
47 0.27
48 0.15
49 0.15
5 -0.23
50 0.15
6 0.3
7 -0.71
8 0.3
9 -0.24

> <PUBCHEM_EFFECTIVE_ROTOR_COUNT>
6

> <PUBCHEM_PHARMACOPHORE_FEATURES>
8
1 1 acceptor
1 6 donor
1 7 acceptor
3 8 14 15 hydrophobe
5 3 4 5 9 10 rings
5 6 7 19 21 25 rings
6 13 17 19 20 21 22 rings
6 18 23 24 26 27 28 rings

> <PUBCHEM_HEAVY_ATOM_COUNT>
28

> <PUBCHEM_ATOM_DEF_STEREO_COUNT>
0

> <PUBCHEM_ATOM_UDEF_STEREO_COUNT>
0

> <PUBCHEM_BOND_DEF_STEREO_COUNT>
0

> <PUBCHEM_BOND_UDEF_STEREO_COUNT>
0

> <PUBCHEM_ISOTOPIC_ATOM_COUNT>
0

> <PUBCHEM_COMPONENT_COUNT>
1

> <PUBCHEM_CACTVS_TAUTO_COUNT>
6

> <PUBCHEM_CONFORMER_ID>
02F85A3D00000008

> <PUBCHEM_MMFF94_ENERGY>
66.6476

> <PUBCHEM_FEATURE_SELFOVERLAP>
40.688

> <PUBCHEM_SHAPE_FINGERPRINT>
10692045 39 9222966828967530396
10764073 3 16485588515450332877
11135609 12 18126282189318077971
11445158 3 16845280666687372320
11477941 20 18117303401366056740
11763715 3 17344935055353620560
12422481 6 12679196972179348444
12623949 98 17417822763432757726
12633257 1 14836121121889998031
12788726 201 17969499303780276441
13009979 54 17988372545936643865
13103583 49 15410621423528893507
13149001 5 17604999302250208019
133893 2 17899158245167829425
13544653 18 17775004609079059003
13782708 43 18200879466327116182
14910302 57 18198902513885773802
14955137 171 18190202173096117361
15848702 151 18340200890298763969
15849732 13 18267318551773090665
17357779 13 18260552207964054016
1813 80 18342170098401907159
18222031 100 18411131463401141322
20642791 239 16515980236544344804
20715895 44 14346338061995754751
20775438 99 17903626733216340430
21344244 246 18049446138639676404
22620623 9 18267304227139260201
23557571 272 18338503158662461576
23559900 14 18270668887940217395
2838139 119 13190333582471772078
4280585 95 18335972142745308106
46194498 28 18119797256783429511
465052 167 15554159393653367519
5104073 3 16272211843167832690
6786 2 17118898249600690337
6913067 236 18340476803799436410
7399639 24 18200014210762724960
999808 66 15122963777276611406

> <PUBCHEM_SHAPE_MULTIPOLES>
540.47
10.8
3.65
2.1
1.19
4.61
0.25
-11.21
-3.95
-0.64
-1.46
-0.01
-0.14
0.78

> <PUBCHEM_SHAPE_SELFOVERLAP>
1182.161

> <PUBCHEM_SHAPE_VOLUME>
297.2

> <PUBCHEM_COORDINATE_TYPE>
2
5
10

$$$$
