49830823
  -OEChem-10052115193D

 35 37  0     0  0  0  0  0  0999 V2000
    2.0351    1.2852   -0.2657 O   0  0  0  0  0  0  0  0  0  0  0  0
    1.7733   -3.3794    0.3792 O   0  0  0  0  0  0  0  0  0  0  0  0
    3.4981   -0.5814   -0.5385 N   0  0  0  0  0  0  0  0  0  0  0  0
    3.4428   -1.9325   -0.4137 N   0  0  0  0  0  0  0  0  0  0  0  0
   -1.8937    0.5441   -1.8984 N   0  0  0  0  0  0  0  0  0  0  0  0
    1.4380   -0.9884    0.2599 C   0  0  0  0  0  0  0  0  0  0  0  0
   -0.9137   -0.3831   -0.0070 C   0  0  0  0  0  0  0  0  0  0  0  0
    2.2983   -0.0507   -0.1656 C   0  0  0  0  0  0  0  0  0  0  0  0
    2.9144    2.0471    0.5476 C   0  0  0  0  0  0  0  0  0  0  0  0
   -2.3191   -0.1985    0.3015 C   0  0  0  0  0  0  0  0  0  0  0  0
    0.0837   -0.8745    0.7262 C   0  0  0  0  0  0  0  0  0  0  0  0
   -2.8570    0.3617   -0.8719 C   0  0  0  0  0  0  0  0  0  0  0  0
    2.1980   -2.2703    0.1027 C   0  0  0  0  0  0  0  0  0  0  0  0
   -0.7710    0.1122   -1.3942 C   0  0  0  0  0  0  0  0  0  0  0  0
    3.7267    2.9833   -0.3341 C   0  0  0  0  0  0  0  0  0  0  0  0
    2.1037    2.8076    1.5859 C   0  0  0  0  0  0  0  0  0  0  0  0
   -3.0969   -0.4532    1.4144 C   0  0  0  0  0  0  0  0  0  0  0  0
   -4.2034    0.6787   -0.9447 C   0  0  0  0  0  0  0  0  0  0  0  0
   -4.4545   -0.1340    1.3420 C   0  0  0  0  0  0  0  0  0  0  0  0
   -5.0029    0.4263    0.1742 C   0  0  0  0  0  0  0  0  0  0  0  0
    3.6243    1.4165    1.1028 H   0  0  0  0  0  0  0  0  0  0  0  0
   -0.1083   -1.2589    1.7242 H   0  0  0  0  0  0  0  0  0  0  0  0
    4.1341   -0.1202   -1.1730 H   0  0  0  0  0  0  0  0  0  0  0  0
    0.1828    0.0918   -1.9346 H   0  0  0  0  0  0  0  0  0  0  0  0
    4.2336   -2.5166   -0.6505 H   0  0  0  0  0  0  0  0  0  0  0  0
    4.3133    2.4143   -1.0631 H   0  0  0  0  0  0  0  0  0  0  0  0
    4.4111    3.5969    0.2598 H   0  0  0  0  0  0  0  0  0  0  0  0
    3.0702    3.6468   -0.9078 H   0  0  0  0  0  0  0  0  0  0  0  0
    1.5387    2.1116    2.2154 H   0  0  0  0  0  0  0  0  0  0  0  0
    2.7473    3.4154    2.2291 H   0  0  0  0  0  0  0  0  0  0  0  0
    1.3693    3.4630    1.1047 H   0  0  0  0  0  0  0  0  0  0  0  0
   -2.6790   -0.8848    2.3169 H   0  0  0  0  0  0  0  0  0  0  0  0
   -4.6323    1.1110   -1.8422 H   0  0  0  0  0  0  0  0  0  0  0  0
   -5.0976   -0.3202    2.1982 H   0  0  0  0  0  0  0  0  0  0  0  0
   -6.0626    0.6658    0.1428 H   0  0  0  0  0  0  0  0  0  0  0  0
  1  8  1  0  0  0  0
  1  9  1  0  0  0  0
  2 13  2  0  0  0  0
  3  4  1  0  0  0  0
  3  8  1  0  0  0  0
  3 23  1  0  0  0  0
  4 13  1  0  0  0  0
  4 25  1  0  0  0  0
  5 12  1  0  0  0  0
  5 14  2  0  0  0  0
  6  8  2  0  0  0  0
  6 11  1  0  0  0  0
  6 13  1  0  0  0  0
  7 10  1  0  0  0  0
  7 11  2  3  0  0  0
  7 14  1  0  0  0  0
  9 15  1  0  0  0  0
  9 16  1  0  0  0  0
  9 21  1  0  0  0  0
 10 12  1  0  0  0  0
 10 17  2  0  0  0  0
 11 22  1  0  0  0  0
 12 18  2  0  0  0  0
 14 24  1  0  0  0  0
 15 26  1  0  0  0  0
 15 27  1  0  0  0  0
 15 28  1  0  0  0  0
 16 29  1  0  0  0  0
 16 30  1  0  0  0  0
 16 31  1  0  0  0  0
 17 19  1  0  0  0  0
 17 32  1  0  0  0  0
 18 20  1  0  0  0  0
 18 33  1  0  0  0  0
 19 20  2  0  0  0  0
 19 34  1  0  0  0  0
 20 35  1  0  0  0  0
M  END
> <PUBCHEM_COMPOUND_CID>
49830823

> <PUBCHEM_CONFORMER_RMSD>
0.6

> <PUBCHEM_CONFORMER_DIVERSEORDER>
1
6
15
10
3
12
16
5
13
8
2
7
11
4
14
9

> <PUBCHEM_MMFF94_PARTIAL_CHARGES>
26
1 -0.36
10 0.03
11 -0.15
12 0.18
13 0.62
14 0.38
17 -0.15
18 -0.15
19 -0.15
2 -0.57
20 -0.15
22 0.15
23 0.4
24 0.06
25 0.37
3 -0.52
32 0.15
33 0.15
34 0.15
35 0.15
4 -0.41
5 -0.63
6 0.01
7 -0.01
8 0.18
9 0.28

> <PUBCHEM_EFFECTIVE_ROTOR_COUNT>
3

> <PUBCHEM_PHARMACOPHORE_FEATURES>
9
1 1 acceptor
1 2 acceptor
1 3 donor
1 4 donor
1 5 acceptor
3 9 15 16 hydrophobe
5 3 4 6 8 13 rings
5 5 7 10 12 14 rings
6 10 12 17 18 19 20 rings

> <PUBCHEM_HEAVY_ATOM_COUNT>
20

> <PUBCHEM_ATOM_DEF_STEREO_COUNT>
0

> <PUBCHEM_ATOM_UDEF_STEREO_COUNT>
0

> <PUBCHEM_BOND_DEF_STEREO_COUNT>
0

> <PUBCHEM_BOND_UDEF_STEREO_COUNT>
1

> <PUBCHEM_ISOTOPIC_ATOM_COUNT>
0

> <PUBCHEM_COMPONENT_COUNT>
1

> <PUBCHEM_CACTVS_TAUTO_COUNT>
8

> <PUBCHEM_CONFORMER_ID>
02F85BA700000001

> <PUBCHEM_MMFF94_ENERGY>
76.783

> <PUBCHEM_FEATURE_SELFOVERLAP>
47.373

> <PUBCHEM_SHAPE_FINGERPRINT>
10165383 225 18120109509153015100
10366900 7 18187088317116072791
11132069 177 17530965825961696621
11552529 35 18271252720188733931
11615757 297 18343586209597158435
12035758 1 18334845144276137488
12236239 1 17418092096304507723
12730499 353 18335993050603731627
13134695 92 18268419149541970702
13140716 1 18337667633020689618
13533116 47 18412547600798583395
13583140 156 18271809085845805785
13631057 29 11749232322529813985
14115302 16 15985105210579562646
14289901 80 18412821387556974379
15342168 16 18264491869637419037
1813 80 17558562309393918374
18186145 218 18343024410288654054
18785283 64 18261393390610400872
19049666 15 17970337131571907621
19784866 34 18128813230155326368
20645476 183 17274819220351262493
20645477 70 18342737394930959887
21033648 29 17894910703364825085
21041028 32 18199187287376171408
21065201 7 16660647319681047875
21120745 212 16242669443319196340
21486144 27 18335698364560799831
22122407 14 18058188167246929833
2255824 54 18343580729150550790
23175994 123 18194403294919251934
23557571 272 17240487975112795551
23559900 14 16950561022038286347
23598291 2 17775003492102550053
25 1 18199753716390265512
31174 14 18336265643625159727
3286 77 18334861558675901671
458136 41 18336833099341964388
474 4 18128807715401370616
49207404 50 18114187492106697345
495365 180 18337658776576254129
5104073 3 18114187415351174705
5895379 119 16342880727901558912
6049 1 18040995090415520837
6442390 28 18120382205052873650
7364860 26 18412822473972723042
7471813 234 17988636338132102584
77492 1 17489866029570119807
7808743 9 17685219774014421244
84936 182 18129939091502382968
9981440 41 15547100718129787992

> <PUBCHEM_SHAPE_MULTIPOLES>
384.91
8.73
2.82
1.36
6.22
0.12
-0.05
-2.82
0.54
-5.3
0.64
0.97
-0.42
0.79

> <PUBCHEM_SHAPE_SELFOVERLAP>
841.78

> <PUBCHEM_SHAPE_VOLUME>
211.9

> <PUBCHEM_COORDINATE_TYPE>
2
5
10

$$$$
