10592750
  -OEChem-10052120443D

 38 41  0     0  0  0  0  0  0999 V2000
    5.2158   -3.4194    0.1030 F   0  0  0  0  0  0  0  0  0  0  0  0
   -7.1763   -0.4877    0.0115 F   0  0  0  0  0  0  0  0  0  0  0  0
   -0.9737    1.1011   -0.0326 N   0  0  0  0  0  0  0  0  0  0  0  0
   -0.7710   -1.1096    0.0308 N   0  0  0  0  0  0  0  0  0  0  0  0
    3.2769    3.9295   -0.1120 N   0  0  0  0  0  0  0  0  0  0  0  0
    0.3692    0.8486   -0.0245 C   0  0  0  0  0  0  0  0  0  0  0  0
    0.4662   -0.5204    0.0153 C   0  0  0  0  0  0  0  0  0  0  0  0
   -1.6177   -0.1045    0.0017 C   0  0  0  0  0  0  0  0  0  0  0  0
    1.6916   -1.2679    0.0377 C   0  0  0  0  0  0  0  0  0  0  0  0
    1.3585    1.8967   -0.0541 C   0  0  0  0  0  0  0  0  0  0  0  0
   -3.0570   -0.2040    0.0037 C   0  0  0  0  0  0  0  0  0  0  0  0
    2.2862   -1.5960    1.2562 C   0  0  0  0  0  0  0  0  0  0  0  0
    2.2875   -1.6667   -1.1588 C   0  0  0  0  0  0  0  0  0  0  0  0
    1.8387    2.3695   -1.2706 C   0  0  0  0  0  0  0  0  0  0  0  0
    1.8369    2.4396    1.1335 C   0  0  0  0  0  0  0  0  0  0  0  0
   -3.6808   -1.3123   -0.5691 C   0  0  0  0  0  0  0  0  0  0  0  0
   -3.8246    0.8087    0.5787 C   0  0  0  0  0  0  0  0  0  0  0  0
    3.4766   -2.3227    1.2782 C   0  0  0  0  0  0  0  0  0  0  0  0
    3.4778   -2.3937   -1.1367 C   0  0  0  0  0  0  0  0  0  0  0  0
   -5.0724   -1.4078   -0.5673 C   0  0  0  0  0  0  0  0  0  0  0  0
   -5.2162    0.7131    0.5808 C   0  0  0  0  0  0  0  0  0  0  0  0
    4.0725   -2.7215    0.0817 C   0  0  0  0  0  0  0  0  0  0  0  0
    2.7886    3.3778   -1.2457 C   0  0  0  0  0  0  0  0  0  0  0  0
    2.7870    3.4447    1.0510 C   0  0  0  0  0  0  0  0  0  0  0  0
   -5.8402   -0.3951    0.0077 C   0  0  0  0  0  0  0  0  0  0  0  0
   -1.4034    2.0164   -0.0717 H   0  0  0  0  0  0  0  0  0  0  0  0
    1.8344   -1.2927    2.1977 H   0  0  0  0  0  0  0  0  0  0  0  0
    1.8368   -1.4191   -2.1170 H   0  0  0  0  0  0  0  0  0  0  0  0
    1.4905    1.9708   -2.2181 H   0  0  0  0  0  0  0  0  0  0  0  0
    1.4872    2.0968    2.1022 H   0  0  0  0  0  0  0  0  0  0  0  0
   -3.1013   -2.1115   -1.0251 H   0  0  0  0  0  0  0  0  0  0  0  0
   -3.3703    1.6792    1.0452 H   0  0  0  0  0  0  0  0  0  0  0  0
    3.9399   -2.5780    2.2267 H   0  0  0  0  0  0  0  0  0  0  0  0
    3.9421   -2.7043   -2.0680 H   0  0  0  0  0  0  0  0  0  0  0  0
   -5.5586   -2.2702   -1.0135 H   0  0  0  0  0  0  0  0  0  0  0  0
   -5.8145    1.4996    1.0314 H   0  0  0  0  0  0  0  0  0  0  0  0
    3.1952    3.7809   -2.1674 H   0  0  0  0  0  0  0  0  0  0  0  0
    3.1923    3.9008    1.9482 H   0  0  0  0  0  0  0  0  0  0  0  0
  1 22  1  0  0  0  0
  2 25  1  0  0  0  0
  3  6  1  0  0  0  0
  3  8  1  0  0  0  0
  3 26  1  0  0  0  0
  4  7  1  0  0  0  0
  4  8  2  0  0  0  0
  5 23  2  0  0  0  0
  5 24  1  0  0  0  0
  6  7  2  0  0  0  0
  6 10  1  0  0  0  0
  7  9  1  0  0  0  0
  8 11  1  0  0  0  0
  9 12  2  0  0  0  0
  9 13  1  0  0  0  0
 10 14  2  0  0  0  0
 10 15  1  0  0  0  0
 11 16  2  0  0  0  0
 11 17  1  0  0  0  0
 12 18  1  0  0  0  0
 12 27  1  0  0  0  0
 13 19  2  0  0  0  0
 13 28  1  0  0  0  0
 14 23  1  0  0  0  0
 14 29  1  0  0  0  0
 15 24  2  0  0  0  0
 15 30  1  0  0  0  0
 16 20  1  0  0  0  0
 16 31  1  0  0  0  0
 17 21  2  0  0  0  0
 17 32  1  0  0  0  0
 18 22  2  0  0  0  0
 18 33  1  0  0  0  0
 19 22  1  0  0  0  0
 19 34  1  0  0  0  0
 20 25  2  0  0  0  0
 20 35  1  0  0  0  0
 21 25  1  0  0  0  0
 21 36  1  0  0  0  0
 23 37  1  0  0  0  0
 24 38  1  0  0  0  0
M  END
> <PUBCHEM_COMPOUND_CID>
10592750

> <PUBCHEM_CONFORMER_RMSD>
0.6

> <PUBCHEM_CONFORMER_DIVERSEORDER>
1
6
5
2
7
3
4

> <PUBCHEM_MMFF94_PARTIAL_CHARGES>
38
1 -0.19
10 0.05
11 0.05
12 -0.15
13 -0.15
14 -0.15
15 -0.15
16 -0.15
17 -0.15
18 -0.15
19 -0.15
2 -0.19
20 -0.15
21 -0.15
22 0.19
23 0.16
24 0.16
25 0.19
26 0.27
27 0.15
28 0.15
29 0.15
3 0.03
30 0.15
31 0.15
32 0.15
33 0.15
34 0.15
35 0.15
36 0.15
37 0.15
38 0.15
4 -0.57
5 -0.62
6 -0.2
7 0.17
8 0.13
9 0.05

> <PUBCHEM_EFFECTIVE_ROTOR_COUNT>
3

> <PUBCHEM_PHARMACOPHORE_FEATURES>
7
1 3 donor
1 5 acceptor
3 3 4 8 cation
5 3 4 6 7 8 rings
6 11 16 17 20 21 25 rings
6 5 10 14 15 23 24 rings
6 9 12 13 18 19 22 rings

> <PUBCHEM_HEAVY_ATOM_COUNT>
25

> <PUBCHEM_ATOM_DEF_STEREO_COUNT>
0

> <PUBCHEM_ATOM_UDEF_STEREO_COUNT>
0

> <PUBCHEM_BOND_DEF_STEREO_COUNT>
0

> <PUBCHEM_BOND_UDEF_STEREO_COUNT>
0

> <PUBCHEM_ISOTOPIC_ATOM_COUNT>
0

> <PUBCHEM_COMPONENT_COUNT>
1

> <PUBCHEM_CACTVS_TAUTO_COUNT>
3

> <PUBCHEM_CONFORMER_ID>
00A1A1EE00000001

> <PUBCHEM_MMFF94_ENERGY>
64.4855

> <PUBCHEM_FEATURE_SELFOVERLAP>
35.522

> <PUBCHEM_SHAPE_FINGERPRINT>
10411042 1 18266177228148129018
10554248 39 18342163476617502045
10721379 63 18340219556527423052
11045515 52 18117561717515167900
11963148 33 17907008835811434511
12107183 9 18126011460343728545
12166972 35 18272369733322424955
12516196 113 18339078177558737946
12553582 1 18191013526330365211
12616971 3 18201999928973556215
12730499 353 18195258925698276753
12788726 201 17683807610136389954
13009979 54 18058737900973739321
13140716 1 18410858772234022387
133893 2 18264227905479640576
13533116 47 18411699924541213659
13540713 5 18201441406888524945
13590594 115 18192159204461320841
13955234 65 18338518645976810745
14739800 52 17703501211872575793
14950920 106 18120689931628970713
14955137 171 18270965635251160582
15042514 8 17762336916529843490
15439362 3 18335984284955626260
15664445 248 18270412577024420126
15927050 60 18054507186984566622
17492 89 18340484586428356759
1813 80 18268996388519484134
18222031 100 18269558251677582250
20369508 70 18260828172339513675
20554085 129 17843395430818203488
20567600 347 18050003591187712174
20600515 1 17841720603893921164
20771845 65 18130507440192362946
21033648 144 17173758837709278501
21049683 271 18261401035694353748
21304303 172 17984988085368061664
21344244 78 18059282193620830105
21781055 127 16557649473080870707
21859007 373 17825082871742489093
22182313 1 17749932424103707613
2255824 54 18407760343639251587
23366157 5 18261393385840621452
23419403 2 17970321803255615404
23559900 14 18341604915577344347
249999 5 18339078306317728944
25147074 1 18200890504033955033
283562 15 17829052014113610482
3004659 81 18343023281429764463
312423 11 18342469136159248233
3411729 13 18337949107907671072
350125 39 18410013204679370965
4409770 3 17323509692354164516
474 4 18116433846086831317
5104073 3 18340778113409562395
513532 50 17703798058779623436
5385378 56 18339081608863061256
5895379 119 17273439191498531281
59755656 215 18337113466122622156
67856867 119 18342453785656001233
7364860 26 18342176700030423912
77188 2 18267021666126413900
8863177 126 18041577931043674051
9841814 1 18260539000907827770
9962374 69 18341606036791168487
9981440 41 17906449179447979001

> <PUBCHEM_SHAPE_MULTIPOLES>
485
11.88
4.47
1.14
21.57
2.57
0.01
-5.37
-0.22
-9.76
0.12
-1.01
0.15
-0.76

> <PUBCHEM_SHAPE_SELFOVERLAP>
1090.777

> <PUBCHEM_SHAPE_VOLUME>
257.8

> <PUBCHEM_COORDINATE_TYPE>
2
5
10

$$$$
