49830621
  -OEChem-10052115193D

 69 74  0     0  0  0  0  0  0999 V2000
   -9.4024   -1.6056   -2.2161 Cl  0  0  0  0  0  0  0  0  0  0  0  0
    7.5092   -2.3993    0.5098 O   0  0  0  0  0  0  0  0  0  0  0  0
   10.1249   -2.8658   -0.3663 O   0  0  0  0  0  0  0  0  0  0  0  0
   -6.4503   -0.7579   -1.4721 O   0  0  0  0  0  0  0  0  0  0  0  0
    3.1072    1.2344    0.2015 N   0  0  0  0  0  0  0  0  0  0  0  0
    2.0132    0.5297   -0.1426 N   0  0  0  0  0  0  0  0  0  0  0  0
    3.7573    3.5094    0.7160 N   0  0  0  0  0  0  0  0  0  0  0  0
    1.8639    5.0413    0.5798 N   0  0  0  0  0  0  0  0  0  0  0  0
   -0.3381    4.3224    0.0046 N   0  0  0  0  0  0  0  0  0  0  0  0
   -4.2158   -0.0520   -1.5437 N   0  0  0  0  0  0  0  0  0  0  0  0
   -5.3973   -0.6299    0.5308 N   0  0  0  0  0  0  0  0  0  0  0  0
    4.4390    0.5225    0.3539 C   0  0  0  0  0  0  0  0  0  0  0  0
    4.4046   -0.5196    1.4861 C   0  0  0  0  0  0  0  0  0  0  0  0
    4.9033   -0.1129   -0.9687 C   0  0  0  0  0  0  0  0  0  0  0  0
    6.2096   -1.8499    0.3214 C   0  0  0  0  0  0  0  0  0  0  0  0
    5.7509   -1.2232    1.6359 C   0  0  0  0  0  0  0  0  0  0  0  0
    6.2465   -0.8200   -0.8061 C   0  0  0  0  0  0  0  0  0  0  0  0
    2.8664    2.5651    0.3739 C   0  0  0  0  0  0  0  0  0  0  0  0
    1.5171    2.7446    0.1245 C   0  0  0  0  0  0  0  0  0  0  0  0
    1.0484    1.4548   -0.1879 C   0  0  0  0  0  0  0  0  0  0  0  0
    7.7935   -3.4028   -0.4543 C   0  0  0  0  0  0  0  0  0  0  0  0
    1.0197    4.0385    0.2376 C   0  0  0  0  0  0  0  0  0  0  0  0
   -0.2968    1.0706   -0.5344 C   0  0  0  0  0  0  0  0  0  0  0  0
    9.1951   -3.9322   -0.2188 C   0  0  0  0  0  0  0  0  0  0  0  0
    3.1617    4.7189    0.7947 C   0  0  0  0  0  0  0  0  0  0  0  0
   -0.7027    1.0778   -1.8689 C   0  0  0  0  0  0  0  0  0  0  0  0
   -1.1925    0.6905    0.4650 C   0  0  0  0  0  0  0  0  0  0  0  0
   -2.0044    0.7053   -2.2041 C   0  0  0  0  0  0  0  0  0  0  0  0
   -2.4942    0.3180    0.1299 C   0  0  0  0  0  0  0  0  0  0  0  0
   -2.9001    0.3254   -1.2046 C   0  0  0  0  0  0  0  0  0  0  0  0
   11.4573   -3.3011   -0.1341 C   0  0  0  0  0  0  0  0  0  0  0  0
   -5.3164   -0.4736   -0.7723 C   0  0  0  0  0  0  0  0  0  0  0  0
   -6.6907   -1.0532    0.7189 C   0  0  0  0  0  0  0  0  0  0  0  0
   -7.3384   -1.1328   -0.5050 C   0  0  0  0  0  0  0  0  0  0  0  0
   -7.3967   -1.3909    1.8824 C   0  0  0  0  0  0  0  0  0  0  0  0
   -8.7328   -1.7952    1.7485 C   0  0  0  0  0  0  0  0  0  0  0  0
   -8.6591   -1.5283   -0.6776 C   0  0  0  0  0  0  0  0  0  0  0  0
   -9.3492   -1.8617    0.4928 C   0  0  0  0  0  0  0  0  0  0  0  0
   -9.5109   -2.1615    2.9696 C   0  0  0  0  0  0  0  0  0  0  0  0
    5.1475    1.3146    0.6290 H   0  0  0  0  0  0  0  0  0  0  0  0
    4.1366   -0.0335    2.4320 H   0  0  0  0  0  0  0  0  0  0  0  0
    3.6257   -1.2670    1.2884 H   0  0  0  0  0  0  0  0  0  0  0  0
    4.9852    0.6588   -1.7436 H   0  0  0  0  0  0  0  0  0  0  0  0
    4.1561   -0.8337   -1.3246 H   0  0  0  0  0  0  0  0  0  0  0  0
    5.5008   -2.6501    0.0669 H   0  0  0  0  0  0  0  0  0  0  0  0
    6.5065   -0.5099    1.9902 H   0  0  0  0  0  0  0  0  0  0  0  0
    5.6862   -1.9955    2.4119 H   0  0  0  0  0  0  0  0  0  0  0  0
    6.5120   -1.2860   -1.7605 H   0  0  0  0  0  0  0  0  0  0  0  0
    7.0349   -0.0824   -0.6068 H   0  0  0  0  0  0  0  0  0  0  0  0
    7.0730   -4.2233   -0.3638 H   0  0  0  0  0  0  0  0  0  0  0  0
    7.7424   -2.9865   -1.4646 H   0  0  0  0  0  0  0  0  0  0  0  0
    9.2729   -4.3325    0.7988 H   0  0  0  0  0  0  0  0  0  0  0  0
    9.4219   -4.7259   -0.9391 H   0  0  0  0  0  0  0  0  0  0  0  0
    3.8099    5.5451    1.0668 H   0  0  0  0  0  0  0  0  0  0  0  0
   -0.0165    1.3718   -2.6597 H   0  0  0  0  0  0  0  0  0  0  0  0
   -0.8910    0.6799    1.5099 H   0  0  0  0  0  0  0  0  0  0  0  0
   -0.6581    5.2771    0.0980 H   0  0  0  0  0  0  0  0  0  0  0  0
   -0.9908    3.5964   -0.2516 H   0  0  0  0  0  0  0  0  0  0  0  0
   -2.3067    0.7159   -3.2482 H   0  0  0  0  0  0  0  0  0  0  0  0
   -3.1516    0.0313    0.9420 H   0  0  0  0  0  0  0  0  0  0  0  0
   11.5660   -3.6762    0.8882 H   0  0  0  0  0  0  0  0  0  0  0  0
   11.7383   -4.0771   -0.8526 H   0  0  0  0  0  0  0  0  0  0  0  0
   12.1263   -2.4463   -0.2645 H   0  0  0  0  0  0  0  0  0  0  0  0
   -4.3866   -0.0043   -2.5461 H   0  0  0  0  0  0  0  0  0  0  0  0
   -6.9172   -1.3368    2.8546 H   0  0  0  0  0  0  0  0  0  0  0  0
  -10.3892   -2.1782    0.4264 H   0  0  0  0  0  0  0  0  0  0  0  0
   -8.8511   -2.4956    3.7776 H   0  0  0  0  0  0  0  0  0  0  0  0
  -10.2032   -2.9843    2.7610 H   0  0  0  0  0  0  0  0  0  0  0  0
  -10.0840   -1.2982    3.3220 H   0  0  0  0  0  0  0  0  0  0  0  0
  1 37  1  0  0  0  0
  2 15  1  0  0  0  0
  2 21  1  0  0  0  0
  3 24  1  0  0  0  0
  3 31  1  0  0  0  0
  4 32  1  0  0  0  0
  4 34  1  0  0  0  0
  5  6  1  0  0  0  0
  5 12  1  0  0  0  0
  5 18  1  0  0  0  0
  6 20  2  0  0  0  0
  7 18  2  0  0  0  0
  7 25  1  0  0  0  0
  8 22  1  0  0  0  0
  8 25  2  0  0  0  0
  9 22  1  0  0  0  0
  9 57  1  0  0  0  0
  9 58  1  0  0  0  0
 10 30  1  0  0  0  0
 10 32  1  0  0  0  0
 10 64  1  0  0  0  0
 11 32  2  0  0  0  0
 11 33  1  0  0  0  0
 12 13  1  0  0  0  0
 12 14  1  0  0  0  0
 12 40  1  0  0  0  0
 13 16  1  0  0  0  0
 13 41  1  0  0  0  0
 13 42  1  0  0  0  0
 14 17  1  0  0  0  0
 14 43  1  0  0  0  0
 14 44  1  0  0  0  0
 15 16  1  0  0  0  0
 15 17  1  0  0  0  0
 15 45  1  0  0  0  0
 16 46  1  0  0  0  0
 16 47  1  0  0  0  0
 17 48  1  0  0  0  0
 17 49  1  0  0  0  0
 18 19  1  0  0  0  0
 19 20  1  0  0  0  0
 19 22  2  0  0  0  0
 20 23  1  0  0  0  0
 21 24  1  0  0  0  0
 21 50  1  0  0  0  0
 21 51  1  0  0  0  0
 23 26  2  0  0  0  0
 23 27  1  0  0  0  0
 24 52  1  0  0  0  0
 24 53  1  0  0  0  0
 25 54  1  0  0  0  0
 26 28  1  0  0  0  0
 26 55  1  0  0  0  0
 27 29  2  0  0  0  0
 27 56  1  0  0  0  0
 28 30  2  0  0  0  0
 28 59  1  0  0  0  0
 29 30  1  0  0  0  0
 29 60  1  0  0  0  0
 31 61  1  0  0  0  0
 31 62  1  0  0  0  0
 31 63  1  0  0  0  0
 33 34  2  0  0  0  0
 33 35  1  0  0  0  0
 34 37  1  0  0  0  0
 35 36  2  0  0  0  0
 35 65  1  0  0  0  0
 36 38  1  0  0  0  0
 36 39  1  0  0  0  0
 37 38  2  0  0  0  0
 38 66  1  0  0  0  0
 39 67  1  0  0  0  0
 39 68  1  0  0  0  0
 39 69  1  0  0  0  0
M  END
> <PUBCHEM_COMPOUND_CID>
49830621

> <PUBCHEM_CONFORMER_RMSD>
1

> <PUBCHEM_CONFORMER_DIVERSEORDER>
1
55
25
33
22
65
49
56
6
30
52
42
40
9
53
43
48
46
3
34
5
50
32
29
63
41
58
23
4
61
8
38
64
31
20
19
10
18
21
36
14
47
60
12
27
11
37
54
24
7
28
62
16
39
26
15
59
13
57
51
66
17
35
45
44
2

> <PUBCHEM_MMFF94_PARTIAL_CHARGES>
44
1 -0.18
10 -0.58
11 -0.57
12 0.26
15 0.28
18 0.11
2 -0.56
20 0.23
21 0.28
22 0.41
23 0.05
24 0.28
25 0.47
26 -0.15
27 -0.15
28 -0.15
29 -0.15
3 -0.56
30 0.1
31 0.28
32 0.56
33 0.23
34 0.14
35 -0.15
36 -0.14
37 0.18
38 -0.15
39 0.14
4 -0.28
5 0.31
54 0.15
55 0.15
56 0.15
57 0.4
58 0.4
59 0.15
6 -0.71
60 0.15
64 0.4
65 0.15
66 0.15
7 -0.57
8 -0.62
9 -0.9

> <PUBCHEM_EFFECTIVE_ROTOR_COUNT>
9.2

> <PUBCHEM_PHARMACOPHORE_FEATURES>
15
1 10 donor
1 2 acceptor
1 3 acceptor
1 6 acceptor
1 9 cation
1 9 donor
3 10 11 32 cation
3 5 7 18 cation
3 7 8 25 cation
5 4 11 32 33 34 rings
5 5 6 18 19 20 rings
6 12 13 14 15 16 17 rings
6 23 26 27 28 29 30 rings
6 33 34 35 36 37 38 rings
6 7 8 18 19 22 25 rings

> <PUBCHEM_HEAVY_ATOM_COUNT>
39

> <PUBCHEM_ATOM_DEF_STEREO_COUNT>
0

> <PUBCHEM_ATOM_UDEF_STEREO_COUNT>
0

> <PUBCHEM_BOND_DEF_STEREO_COUNT>
0

> <PUBCHEM_BOND_UDEF_STEREO_COUNT>
0

> <PUBCHEM_ISOTOPIC_ATOM_COUNT>
0

> <PUBCHEM_COMPONENT_COUNT>
1

> <PUBCHEM_CACTVS_TAUTO_COUNT>
24

> <PUBCHEM_CONFORMER_ID>
02F85ADD00000001

> <PUBCHEM_MMFF94_ENERGY>
99.7781

> <PUBCHEM_FEATURE_SELFOVERLAP>
76.526

> <PUBCHEM_SHAPE_FINGERPRINT>
10258705 36 18041006184823527731
10411042 1 18340765958399523372
10533779 47 18263091049949678227
11411753 29 18334007289834358349
11607047 191 11023819566797858468
11672396 167 18271235106601693439
117089 54 18337673018904014000
11761917 87 18335709355936258627
12013929 2 18187919553209026085
12133447 93 16660630870583999887
12342043 65 18186792591417262837
13673619 4 18186232935772088885
13692115 27 18341892953391261612
13782708 43 18113606911634357293
14359421 15 17894909573551589554
14400156 188 18408323293883174394
14965480 1 17531541966051148267
15131766 46 17623839529231490781
1577012 14 17416980607194864481
19246450 95 17845377648566910273
19301679 30 18272089345209914092
19315958 150 18117560841268330873
20505436 4 17484804067126242452
20771845 65 18131347519149042984
20982279 24 18114475513257542195
21130935 74 18195528323733697555
21781055 127 16271106919527302485
21814621 53 18188200005804918913
21927370 108 18342175514888781016
22033318 11 18058754475870311145
23569943 247 18412541007860961679
23729398 52 18338801225963785820
25242607 90 18201427070214526490
255183 451 18409726262393895964
306946 40 12895076181243317099
3918712 181 8358249350714181590
4330586 98 17458641007981180478
4403749 210 9583218570501652557
4461854 278 17774997978299090086
45377200 153 16009322015265511257
54039377 194 18410011001703896974
57527295 17 17605267368608305856
58083652 198 18270958064315944921
58260988 647 18408044021950003401
6058803 2 17127030679986583229
636775 8 17821732710482097247
6691757 9 15625645142649718853
9831232 110 17313094285556184491
9962374 69 18270951461784938887

> <PUBCHEM_SHAPE_MULTIPOLES>
752
36.25
5.47
1.84
7.02
5.86
-0.19
-60.31
-4.7
-14.36
-1.39
5.11
-0.83
3.08

> <PUBCHEM_SHAPE_SELFOVERLAP>
1637.84

> <PUBCHEM_SHAPE_VOLUME>
411.7

> <PUBCHEM_COORDINATE_TYPE>
2
5
10

$$$$
