49830781
  -OEChem-10052120443D

 61 64  0     0  0  0  0  0  0999 V2000
   -0.0248   -3.6975   -1.8880 S   0  0  0  0  0  0  0  0  0  0  0  0
   -7.4442    1.8547    0.3551 S   0  0  0  0  0  0  0  0  0  0  0  0
    9.2237    3.9715    0.5691 F   0  0  0  0  0  0  0  0  0  0  0  0
    0.1765   -4.9693   -1.2210 O   0  0  0  0  0  0  0  0  0  0  0  0
   -0.2748   -3.6453   -3.3155 O   0  0  0  0  0  0  0  0  0  0  0  0
    1.8005   -3.4945    0.6158 O   0  0  0  0  0  0  0  0  0  0  0  0
   -2.4568   -2.3098    3.1801 O   0  5  0  0  0  0  0  0  0  0  0  0
   -3.8241   -3.8770    2.4776 O   0  0  0  0  0  0  0  0  0  0  0  0
   -3.3010    5.9226   -0.8950 O   0  0  0  0  0  0  0  0  0  0  0  0
   -4.5643   -0.9738    0.8720 N   0  0  0  0  0  0  0  0  0  0  0  0
    1.2743   -2.6465   -1.5036 N   0  0  0  0  0  0  0  0  0  0  0  0
   -3.0179   -2.9434    2.2560 N   0  3  0  0  0  0  0  0  0  0  0  0
   -1.3668   -2.8958   -1.0636 C   0  0  0  0  0  0  0  0  0  0  0  0
   -3.4858   -1.6297    0.2361 C   0  0  0  0  0  0  0  0  0  0  0  0
   -2.7298   -2.5905    0.9077 C   0  0  0  0  0  0  0  0  0  0  0  0
   -1.6704   -3.2236    0.2578 C   0  0  0  0  0  0  0  0  0  0  0  0
   -2.1228   -1.9348   -1.7352 C   0  0  0  0  0  0  0  0  0  0  0  0
   -3.1822   -1.3019   -1.0853 C   0  0  0  0  0  0  0  0  0  0  0  0
   -5.3618    0.0153    0.2189 C   0  0  0  0  0  0  0  0  0  0  0  0
   -6.4430    0.5575    1.1454 C   0  0  0  0  0  0  0  0  0  0  0  0
    3.1047   -1.6867   -0.1542 C   0  0  0  0  0  0  0  0  0  0  0  0
    2.0408   -2.6699   -0.2791 C   0  0  0  0  0  0  0  0  0  0  0  0
    5.1460    0.1995    0.0854 C   0  0  0  0  0  0  0  0  0  0  0  0
    4.2103   -1.9544    0.6530 C   0  0  0  0  0  0  0  0  0  0  0  0
    3.0196   -0.4760   -0.8415 C   0  0  0  0  0  0  0  0  0  0  0  0
    6.2044    1.1779    0.2099 C   0  0  0  0  0  0  0  0  0  0  0  0
    5.2309   -1.0114    0.7728 C   0  0  0  0  0  0  0  0  0  0  0  0
    4.0401    0.4672   -0.7216 C   0  0  0  0  0  0  0  0  0  0  0  0
    7.5149    0.7621    0.4456 C   0  0  0  0  0  0  0  0  0  0  0  0
    5.9140    2.5373    0.0955 C   0  0  0  0  0  0  0  0  0  0  0  0
   -6.1966    3.0801   -0.0210 C   0  0  0  0  0  0  0  0  0  0  0  0
    8.5348    1.7058    0.5671 C   0  0  0  0  0  0  0  0  0  0  0  0
    6.9338    3.4811    0.2171 C   0  0  0  0  0  0  0  0  0  0  0  0
    8.2442    3.0653    0.4529 C   0  0  0  0  0  0  0  0  0  0  0  0
   -5.4444    3.6482    1.0072 C   0  0  0  0  0  0  0  0  0  0  0  0
   -5.9761    3.4676   -1.3427 C   0  0  0  0  0  0  0  0  0  0  0  0
   -4.4716    4.6037    0.7136 C   0  0  0  0  0  0  0  0  0  0  0  0
   -5.0034    4.4231   -1.6362 C   0  0  0  0  0  0  0  0  0  0  0  0
   -4.2510    4.9912   -0.6081 C   0  0  0  0  0  0  0  0  0  0  0  0
   -1.0833   -3.9682    0.7900 H   0  0  0  0  0  0  0  0  0  0  0  0
   -1.8984   -1.6609   -2.7623 H   0  0  0  0  0  0  0  0  0  0  0  0
   -3.7395   -0.5612   -1.6504 H   0  0  0  0  0  0  0  0  0  0  0  0
   -4.7106    0.8335   -0.1067 H   0  0  0  0  0  0  0  0  0  0  0  0
   -5.8432   -0.4162   -0.6680 H   0  0  0  0  0  0  0  0  0  0  0  0
   -4.7747   -1.2245    1.8310 H   0  0  0  0  0  0  0  0  0  0  0  0
    1.5804   -2.0329   -2.2686 H   0  0  0  0  0  0  0  0  0  0  0  0
   -6.0033    0.9476    2.0699 H   0  0  0  0  0  0  0  0  0  0  0  0
   -7.1200   -0.2523    1.4403 H   0  0  0  0  0  0  0  0  0  0  0  0
    4.2925   -2.8912    1.1983 H   0  0  0  0  0  0  0  0  0  0  0  0
    2.1650   -0.2192   -1.4606 H   0  0  0  0  0  0  0  0  0  0  0  0
    6.0576   -1.2514    1.4359 H   0  0  0  0  0  0  0  0  0  0  0  0
    3.9419    1.3852   -1.2944 H   0  0  0  0  0  0  0  0  0  0  0  0
    7.7938   -0.2859    0.5115 H   0  0  0  0  0  0  0  0  0  0  0  0
    4.9048    2.9100   -0.0567 H   0  0  0  0  0  0  0  0  0  0  0  0
    9.5566    1.3828    0.7439 H   0  0  0  0  0  0  0  0  0  0  0  0
    6.7076    4.5402    0.1350 H   0  0  0  0  0  0  0  0  0  0  0  0
   -5.6040    3.3676    2.0452 H   0  0  0  0  0  0  0  0  0  0  0  0
   -6.5521    3.0350   -2.1570 H   0  0  0  0  0  0  0  0  0  0  0  0
   -3.8932    5.0398    1.5236 H   0  0  0  0  0  0  0  0  0  0  0  0
   -4.8357    4.7206   -2.6677 H   0  0  0  0  0  0  0  0  0  0  0  0
   -2.8783    6.2070   -0.0665 H   0  0  0  0  0  0  0  0  0  0  0  0
  1  4  2  0  0  0  0
  1  5  2  0  0  0  0
  1 11  1  0  0  0  0
  1 13  1  0  0  0  0
  2 20  1  0  0  0  0
  2 31  1  0  0  0  0
  3 34  1  0  0  0  0
  6 22  2  0  0  0  0
  7 12  1  0  0  0  0
  8 12  2  0  0  0  0
  9 39  1  0  0  0  0
  9 61  1  0  0  0  0
 10 14  1  0  0  0  0
 10 19  1  0  0  0  0
 10 45  1  0  0  0  0
 11 22  1  0  0  0  0
 11 46  1  0  0  0  0
 12 15  1  0  0  0  0
 13 16  2  0  0  0  0
 13 17  1  0  0  0  0
 14 15  2  0  0  0  0
 14 18  1  0  0  0  0
 15 16  1  0  0  0  0
 16 40  1  0  0  0  0
 17 18  2  0  0  0  0
 17 41  1  0  0  0  0
 18 42  1  0  0  0  0
 19 20  1  0  0  0  0
 19 43  1  0  0  0  0
 19 44  1  0  0  0  0
 20 47  1  0  0  0  0
 20 48  1  0  0  0  0
 21 22  1  0  0  0  0
 21 24  2  0  0  0  0
 21 25  1  0  0  0  0
 23 26  1  0  0  0  0
 23 27  2  0  0  0  0
 23 28  1  0  0  0  0
 24 27  1  0  0  0  0
 24 49  1  0  0  0  0
 25 28  2  0  0  0  0
 25 50  1  0  0  0  0
 26 29  2  0  0  0  0
 26 30  1  0  0  0  0
 27 51  1  0  0  0  0
 28 52  1  0  0  0  0
 29 32  1  0  0  0  0
 29 53  1  0  0  0  0
 30 33  2  0  0  0  0
 30 54  1  0  0  0  0
 31 35  2  0  0  0  0
 31 36  1  0  0  0  0
 32 34  2  0  0  0  0
 32 55  1  0  0  0  0
 33 34  1  0  0  0  0
 33 56  1  0  0  0  0
 35 37  1  0  0  0  0
 35 57  1  0  0  0  0
 36 38  2  0  0  0  0
 36 58  1  0  0  0  0
 37 39  2  0  0  0  0
 37 59  1  0  0  0  0
 38 39  1  0  0  0  0
 38 60  1  0  0  0  0
M  CHG  2   7  -1  12   1
M  END
> <PUBCHEM_COMPOUND_CID>
49830781

> <PUBCHEM_CONFORMER_RMSD>
1.2

> <PUBCHEM_CONFORMER_DIVERSEORDER>
1
83
64
119
94
117
126
106
95
129
125
52
130
135
63
109
88
114
124
99
71
78
101
51
61
25
97
14
132
41
115
37
133
85
121
91
16
54
100
67
79
86
70
96
98
127
31
56
66
81
72
59
60
49
22
75
90
32
123
107
104
110
105
77
82
92
128
24
48
57
89
55
113
13
69
112
8
50
102
93
87
120
108
74
28
26
29
136
131
20
47
21
73
44
18
116
35
103
65
134
62
40
42
7
6
46
2
76
19
34
38
111
122
33
43
53
23
3
80
27
118
4
11
17
12
68
9
15
58
36
39
5
10
30
84
137
45

> <PUBCHEM_MMFF94_PARTIAL_CHARGES>
55
1 1.45
10 -0.87
11 -0.79
12 0.91
13 -0.01
14 0.1
15 0.13
16 -0.15
17 -0.15
18 -0.15
19 0.37
2 -0.33
20 0.23
21 0.09
22 0.72
24 -0.15
25 -0.15
27 -0.15
28 -0.15
29 -0.15
3 -0.19
30 -0.15
31 0.1
32 -0.15
33 -0.15
34 0.19
35 -0.15
36 -0.15
37 -0.15
38 -0.15
39 0.08
4 -0.65
40 0.15
41 0.15
42 0.15
45 0.4
46 0.42
49 0.15
5 -0.65
50 0.15
51 0.15
52 0.15
53 0.15
54 0.15
55 0.15
56 0.15
57 0.15
58 0.15
59 0.15
6 -0.57
60 0.15
61 0.45
7 -0.52
8 -0.52
9 -0.53

> <PUBCHEM_EFFECTIVE_ROTOR_COUNT>
11

> <PUBCHEM_PHARMACOPHORE_FEATURES>
14
1 10 cation
1 10 donor
1 11 donor
1 4 acceptor
1 5 acceptor
1 6 acceptor
1 7 acceptor
1 7 anion
1 8 acceptor
1 9 donor
6 13 14 15 16 17 18 rings
6 21 23 24 25 27 28 rings
6 26 29 30 32 33 34 rings
6 31 35 36 37 38 39 rings

> <PUBCHEM_HEAVY_ATOM_COUNT>
39

> <PUBCHEM_ATOM_DEF_STEREO_COUNT>
0

> <PUBCHEM_ATOM_UDEF_STEREO_COUNT>
0

> <PUBCHEM_BOND_DEF_STEREO_COUNT>
0

> <PUBCHEM_BOND_UDEF_STEREO_COUNT>
0

> <PUBCHEM_ISOTOPIC_ATOM_COUNT>
0

> <PUBCHEM_COMPONENT_COUNT>
1

> <PUBCHEM_CACTVS_TAUTO_COUNT>
4

> <PUBCHEM_CONFORMER_ID>
02F85B7D00000001

> <PUBCHEM_MMFF94_ENERGY>
114.7091

> <PUBCHEM_FEATURE_SELFOVERLAP>
71.149

> <PUBCHEM_SHAPE_FINGERPRINT>
10939801 23 18411136939579811476
11204353 107 18412258441762390096
12559415 180 18051411769194480432
13947930 73 10809641293774992345
14340393 34 18340209591887512913
14705955 166 18041288767800995691
14739800 52 17610626307268193451
15448158 71 18341880871484637078
15950262 2 18336829701791244811
16992828 155 18199748209877857821
19053607 189 18198610060613965560
19304152 47 18338239391767899234
21792965 326 18268690815040426469
23516275 100 18338233752798028573
3525247 154 18131063805708894752
3918712 181 18190174578243255685
437795 171 18264483984009327228
437795 83 18342727534134642941
44575985 347 18272080630933001672

> <PUBCHEM_SHAPE_MULTIPOLES>
752.87
24.54
8.81
1.94
33.7
5.23
0.06
39.77
6.19
-7.41
-1.84
-2.53
-2.41
3.69

> <PUBCHEM_SHAPE_SELFOVERLAP>
1606.904

> <PUBCHEM_SHAPE_VOLUME>
423.7

> <PUBCHEM_COORDINATE_TYPE>
2
5
10

$$$$
