2797246
  -OEChem-10052120433D

 46 48  0     0  0  0  0  0  0999 V2000
   -3.1167   -2.7011   -2.2920 S   0  0  0  0  0  0  0  0  0  0  0  0
   -7.5348    0.8395    1.6158 F   0  0  0  0  0  0  0  0  0  0  0  0
    1.2533   -0.2733    1.4930 O   0  0  0  0  0  0  0  0  0  0  0  0
    1.7719   -1.6393   -1.6004 O   0  0  0  0  0  0  0  0  0  0  0  0
   -0.0954   -1.1378   -0.3390 N   0  0  0  0  0  0  0  0  0  0  0  0
   -0.9041   -1.9393   -1.1108 N   0  0  0  0  0  0  0  0  0  0  0  0
   -2.6845   -0.5038   -0.6614 N   0  0  0  0  0  0  0  0  0  0  0  0
    2.0469   -0.1306    0.2981 C   0  0  0  0  0  0  0  0  0  0  0  0
    2.0904    1.3355   -0.1465 C   0  0  0  0  0  0  0  0  0  0  0  0
    3.4628   -0.6537    0.5715 C   0  0  0  0  0  0  0  0  0  0  0  0
    1.2519   -1.0423   -0.6574 C   0  0  0  0  0  0  0  0  0  0  0  0
    1.5869    1.6613   -1.3834 C   0  0  0  0  0  0  0  0  0  0  0  0
    3.7593   -1.1123    1.8325 C   0  0  0  0  0  0  0  0  0  0  0  0
    2.6310    2.2651    0.7099 C   0  0  0  0  0  0  0  0  0  0  0  0
    4.3751   -0.6420   -0.4558 C   0  0  0  0  0  0  0  0  0  0  0  0
    1.6262    2.9956   -1.7879 C   0  0  0  0  0  0  0  0  0  0  0  0
    5.0466   -1.5881    2.0811 C   0  0  0  0  0  0  0  0  0  0  0  0
    2.6703    3.5996    0.3054 C   0  0  0  0  0  0  0  0  0  0  0  0
    5.6625   -1.1179   -0.2072 C   0  0  0  0  0  0  0  0  0  0  0  0
    2.1680    3.9648   -0.9436 C   0  0  0  0  0  0  0  0  0  0  0  0
    5.9983   -1.5908    1.0614 C   0  0  0  0  0  0  0  0  0  0  0  0
   -2.2431   -1.6422   -1.3266 C   0  0  0  0  0  0  0  0  0  0  0  0
   -3.9280   -0.1594   -0.0769 C   0  0  0  0  0  0  0  0  0  0  0  0
   -4.7665   -1.1656    0.3707 C   0  0  0  0  0  0  0  0  0  0  0  0
   -4.2767    1.1758    0.0326 C   0  0  0  0  0  0  0  0  0  0  0  0
   -5.9913   -0.8265    0.9456 C   0  0  0  0  0  0  0  0  0  0  0  0
   -5.5016    1.5150    0.6074 C   0  0  0  0  0  0  0  0  0  0  0  0
   -6.3588    0.5138    1.0640 C   0  0  0  0  0  0  0  0  0  0  0  0
    1.1633    0.9430   -2.0751 H   0  0  0  0  0  0  0  0  0  0  0  0
    3.0500   -1.1253    2.6524 H   0  0  0  0  0  0  0  0  0  0  0  0
    3.0179    1.9958    1.6876 H   0  0  0  0  0  0  0  0  0  0  0  0
    4.1309   -0.2763   -1.4480 H   0  0  0  0  0  0  0  0  0  0  0  0
    0.6353    0.4753    1.5514 H   0  0  0  0  0  0  0  0  0  0  0  0
   -0.5221   -0.6960    0.4671 H   0  0  0  0  0  0  0  0  0  0  0  0
    1.2364    3.2805   -2.7609 H   0  0  0  0  0  0  0  0  0  0  0  0
    5.3089   -1.9561    3.0689 H   0  0  0  0  0  0  0  0  0  0  0  0
    3.0905    4.3545    0.9635 H   0  0  0  0  0  0  0  0  0  0  0  0
    6.4037   -1.1197   -1.0011 H   0  0  0  0  0  0  0  0  0  0  0  0
    2.1986    5.0036   -1.2586 H   0  0  0  0  0  0  0  0  0  0  0  0
    7.0007   -1.9610    1.2550 H   0  0  0  0  0  0  0  0  0  0  0  0
   -0.4711   -2.7605   -1.5210 H   0  0  0  0  0  0  0  0  0  0  0  0
   -2.0028    0.2521   -0.6438 H   0  0  0  0  0  0  0  0  0  0  0  0
   -4.4939   -2.2147    0.3272 H   0  0  0  0  0  0  0  0  0  0  0  0
   -3.6162    1.9625   -0.3209 H   0  0  0  0  0  0  0  0  0  0  0  0
   -6.6557   -1.6051    1.3087 H   0  0  0  0  0  0  0  0  0  0  0  0
   -5.7883    2.5585    0.6994 H   0  0  0  0  0  0  0  0  0  0  0  0
  1 22  2  0  0  0  0
  2 28  1  0  0  0  0
  3  8  1  0  0  0  0
  3 33  1  0  0  0  0
  4 11  2  0  0  0  0
  5  6  1  0  0  0  0
  5 11  1  0  0  0  0
  5 34  1  0  0  0  0
  6 22  1  0  0  0  0
  6 41  1  0  0  0  0
  7 22  1  0  0  0  0
  7 23  1  0  0  0  0
  7 42  1  0  0  0  0
  8  9  1  0  0  0  0
  8 10  1  0  0  0  0
  8 11  1  0  0  0  0
  9 12  2  0  0  0  0
  9 14  1  0  0  0  0
 10 13  2  0  0  0  0
 10 15  1  0  0  0  0
 12 16  1  0  0  0  0
 12 29  1  0  0  0  0
 13 17  1  0  0  0  0
 13 30  1  0  0  0  0
 14 18  2  0  0  0  0
 14 31  1  0  0  0  0
 15 19  2  0  0  0  0
 15 32  1  0  0  0  0
 16 20  2  0  0  0  0
 16 35  1  0  0  0  0
 17 21  2  0  0  0  0
 17 36  1  0  0  0  0
 18 20  1  0  0  0  0
 18 37  1  0  0  0  0
 19 21  1  0  0  0  0
 19 38  1  0  0  0  0
 20 39  1  0  0  0  0
 21 40  1  0  0  0  0
 23 24  2  0  0  0  0
 23 25  1  0  0  0  0
 24 26  1  0  0  0  0
 24 43  1  0  0  0  0
 25 27  2  0  0  0  0
 25 44  1  0  0  0  0
 26 28  2  0  0  0  0
 26 45  1  0  0  0  0
 27 28  1  0  0  0  0
 27 46  1  0  0  0  0
M  END
> <PUBCHEM_COMPOUND_CID>
2797246

> <PUBCHEM_CONFORMER_RMSD>
1

> <PUBCHEM_CONFORMER_DIVERSEORDER>
1
52
6
28
57
31
23
4
37
12
76
22
64
35
92
63
75
32
3
45
7
86
89
56
39
13
16
74
54
14
58
5
59
78
65
71
80
9
84
15
83
85
21
73
70
10
48
42
26
43
33
49
87
2
53
51
66
90
25
40
79
44
30
88
18
67
91
38
36
62
19
24
81
41
46
34
50
20
61
82
68
72
69
11
47
60
55
17
8
29
77
27

> <PUBCHEM_MMFF94_PARTIAL_CHARGES>
46
1 -0.38
10 -0.14
11 0.57
12 -0.15
13 -0.15
14 -0.15
15 -0.15
16 -0.15
17 -0.15
18 -0.15
19 -0.15
2 -0.19
20 -0.15
21 -0.15
22 0.5
23 0.12
24 -0.15
25 -0.15
26 -0.15
27 -0.15
28 0.19
29 0.15
3 -0.68
30 0.15
31 0.15
32 0.15
33 0.4
34 0.37
35 0.15
36 0.15
37 0.15
38 0.15
39 0.15
4 -0.57
40 0.15
41 0.37
42 0.37
43 0.15
44 0.15
45 0.15
46 0.15
5 -0.43
6 -0.43
7 -0.55
8 0.63
9 -0.14

> <PUBCHEM_EFFECTIVE_ROTOR_COUNT>
8

> <PUBCHEM_PHARMACOPHORE_FEATURES>
10
1 1 acceptor
1 3 acceptor
1 3 donor
1 4 acceptor
1 5 donor
1 6 donor
1 7 donor
6 10 13 15 17 19 21 rings
6 23 24 25 26 27 28 rings
6 9 12 14 16 18 20 rings

> <PUBCHEM_HEAVY_ATOM_COUNT>
28

> <PUBCHEM_ATOM_DEF_STEREO_COUNT>
0

> <PUBCHEM_ATOM_UDEF_STEREO_COUNT>
0

> <PUBCHEM_BOND_DEF_STEREO_COUNT>
0

> <PUBCHEM_BOND_UDEF_STEREO_COUNT>
0

> <PUBCHEM_ISOTOPIC_ATOM_COUNT>
0

> <PUBCHEM_COMPONENT_COUNT>
1

> <PUBCHEM_CACTVS_TAUTO_COUNT>
6

> <PUBCHEM_CONFORMER_ID>
002AAEBE00000001

> <PUBCHEM_MMFF94_ENERGY>
99.1112

> <PUBCHEM_FEATURE_SELFOVERLAP>
52.355

> <PUBCHEM_SHAPE_FINGERPRINT>
10162869 55 18272082791717158735
10906281 52 17970907993926447360
11331351 85 18200872882030870576
11421498 54 17386563532191168248
11545043 162 16588296164623079351
12107183 9 18343298150103461898
12107698 1 18261112954994878545
12166972 35 18412546513459987305
12403259 118 18341896282185321863
12422481 6 18271799095097760764
12616971 3 18342457071553876495
12633257 1 18343013402477346551
13540713 5 18198336462781050191
13583140 156 17895743016486948775
13590594 115 18261666000516598180
13631057 29 11458426829947665079
13673619 4 16877942706945027319
13782708 43 16226040076788013259
14020679 6 18114181960184240938
14117953 113 18199752458181418173
14341114 176 18186804690429279753
14739800 52 17556846246225344880
14849402 71 18187653560656312156
14950920 106 18186525436430813315
14955137 171 18336551529849710038
15021287 119 18409161126032660343
15475509 8 18271538511538518302
1601671 61 18343016675738538430
16992787 43 18041285465482840980
17809404 112 15338840906135698735
17818456 19 18131349726054772648
17980427 23 17988063591458369588
1813 80 18409720756345783070
20642791 268 18055330665354083464
20721686 146 16916779721887850552
21033648 29 17773580642689037585
21054139 6 8574708014171569770
21521239 73 10737278005946296896
21774942 28 14692018990324981075
21987483 16 17973174108977011283
22849341 161 18409166597857879624
23559900 14 17131288912015531942
24771293 8 18198325438518061448
249057 25 18130216177460211271
25147074 1 18198616821124376983
312423 11 18195519518222741503
3411729 13 18338800147583654920
3552219 110 18041283171969986516
3737641 26 16951676983253942642
38570 142 17826816998483563828
4516262 110 17899975225135783965
5104073 3 18337399348257576507
57359948 33 12031520822233828675
57634706 306 9870591267755103330
57724786 102 18337953509922095117
58083652 198 17970321850748018824
58260988 587 16371876086961493748
5912855 24 17905047302592815839
6058803 2 18053934332108755718
6371009 1 18200869592181127181

> <PUBCHEM_SHAPE_MULTIPOLES>
546.12
15.62
3.64
1.86
19.83
3.83
0.22
-3.31
-8.89
-3.06
1.52
0.13
-0.7
-3.13

> <PUBCHEM_SHAPE_SELFOVERLAP>
1174.7

> <PUBCHEM_SHAPE_VOLUME>
305

> <PUBCHEM_COORDINATE_TYPE>
2
5
10

$$$$
