10301884
  -OEChem-10062121563D

 68 73  0     0  0  0  0  0  0999 V2000
    4.6464   -1.3381    2.6817 Cl  0  0  0  0  0  0  0  0  0  0  0  0
    0.6748   -0.8617    1.2838 O   0  0  0  0  0  0  0  0  0  0  0  0
    0.7164   -4.7300   -0.1732 O   0  0  0  0  0  0  0  0  0  0  0  0
   -3.3649    1.5674    0.9455 O   0  0  0  0  0  0  0  0  0  0  0  0
    3.8702    1.1216   -1.7963 O   0  0  0  0  0  0  0  0  0  0  0  0
    5.9882    0.4285   -2.7136 O   0  0  0  0  0  0  0  0  0  0  0  0
   -7.5134   -0.1545   -0.8738 N   0  0  0  0  0  0  0  0  0  0  0  0
    2.9403    0.4026    0.8452 N   0  0  0  0  0  0  0  0  0  0  0  0
    0.7503    3.8412    0.1539 N   0  0  0  0  0  0  0  0  0  0  0  0
    2.8507    2.6701    0.3076 N   0  0  0  0  0  0  0  0  0  0  0  0
   -8.3542    0.5439    0.0980 C   0  0  0  0  0  0  0  0  0  0  0  0
   -8.2982   -1.3169   -1.2888 C   0  0  0  0  0  0  0  0  0  0  0  0
   -9.7345    0.4811   -0.5390 C   0  0  0  0  0  0  0  0  0  0  0  0
   -9.6988   -0.7439   -1.4477 C   0  0  0  0  0  0  0  0  0  0  0  0
   -6.2188   -0.5264   -0.3226 C   0  0  0  0  0  0  0  0  0  0  0  0
   -5.4285    0.7207    0.0606 C   0  0  0  0  0  0  0  0  0  0  0  0
    0.3287   -1.9461    0.4321 C   0  0  0  0  0  0  0  0  0  0  0  0
    1.5696   -2.4600   -0.2935 C   0  0  0  0  0  0  0  0  0  0  0  0
   -0.2950   -3.0591    1.2690 C   0  0  0  0  0  0  0  0  0  0  0  0
   -4.0584    0.3638    0.6210 C   0  0  0  0  0  0  0  0  0  0  0  0
    1.2558   -3.7420   -1.0519 C   0  0  0  0  0  0  0  0  0  0  0  0
   -0.5092   -4.3089    0.4269 C   0  0  0  0  0  0  0  0  0  0  0  0
    0.0653    0.3398    1.0330 C   0  0  0  0  0  0  0  0  0  0  0  0
   -2.0058    1.5386    0.8707 C   0  0  0  0  0  0  0  0  0  0  0  0
    0.7697    1.5087    0.7109 C   0  0  0  0  0  0  0  0  0  0  0  0
   -1.3209    0.3530    1.1132 C   0  0  0  0  0  0  0  0  0  0  0  0
    0.0892    2.7122    0.4638 C   0  0  0  0  0  0  0  0  0  0  0  0
   -1.3009    2.7023    0.5498 C   0  0  0  0  0  0  0  0  0  0  0  0
    2.1576    1.5578    0.6156 C   0  0  0  0  0  0  0  0  0  0  0  0
    4.1818   -0.0199    0.3388 C   0  0  0  0  0  0  0  0  0  0  0  0
    2.0949    3.7589    0.0925 C   0  0  0  0  0  0  0  0  0  0  0  0
    4.5818    0.3512   -0.9292 C   0  0  0  0  0  0  0  0  0  0  0  0
    5.7912   -0.0449   -1.4531 C   0  0  0  0  0  0  0  0  0  0  0  0
    5.0533   -0.8200    1.0834 C   0  0  0  0  0  0  0  0  0  0  0  0
    6.6688   -0.8341   -0.7381 C   0  0  0  0  0  0  0  0  0  0  0  0
    6.2889   -1.2245    0.5483 C   0  0  0  0  0  0  0  0  0  0  0  0
    4.7678    1.1675   -2.9244 C   0  0  0  0  0  0  0  0  0  0  0  0
   -8.3704    0.0329    1.0692 H   0  0  0  0  0  0  0  0  0  0  0  0
   -8.0596    1.5864    0.2512 H   0  0  0  0  0  0  0  0  0  0  0  0
   -7.9317   -1.7503   -2.2247 H   0  0  0  0  0  0  0  0  0  0  0  0
   -8.3039   -2.0998   -0.5196 H   0  0  0  0  0  0  0  0  0  0  0  0
   -9.9302    1.3794   -1.1364 H   0  0  0  0  0  0  0  0  0  0  0  0
  -10.5225    0.4023    0.2168 H   0  0  0  0  0  0  0  0  0  0  0  0
  -10.4653   -1.4754   -1.1722 H   0  0  0  0  0  0  0  0  0  0  0  0
   -9.8806   -0.4410   -2.4856 H   0  0  0  0  0  0  0  0  0  0  0  0
   -6.3285   -1.1827    0.5506 H   0  0  0  0  0  0  0  0  0  0  0  0
   -5.6521   -1.0854   -1.0777 H   0  0  0  0  0  0  0  0  0  0  0  0
   -5.3042    1.3801   -0.8083 H   0  0  0  0  0  0  0  0  0  0  0  0
   -5.9488    1.3162    0.8198 H   0  0  0  0  0  0  0  0  0  0  0  0
   -0.3946   -1.6395   -0.3376 H   0  0  0  0  0  0  0  0  0  0  0  0
    1.9544   -1.6981   -0.9794 H   0  0  0  0  0  0  0  0  0  0  0  0
    2.3593   -2.6548    0.4426 H   0  0  0  0  0  0  0  0  0  0  0  0
    0.3772   -3.2920    2.1053 H   0  0  0  0  0  0  0  0  0  0  0  0
   -1.2398   -2.7352    1.7169 H   0  0  0  0  0  0  0  0  0  0  0  0
   -4.1686   -0.2409    1.5288 H   0  0  0  0  0  0  0  0  0  0  0  0
   -3.5227   -0.2159   -0.1423 H   0  0  0  0  0  0  0  0  0  0  0  0
    2.1726   -4.1495   -1.4895 H   0  0  0  0  0  0  0  0  0  0  0  0
    0.5507   -3.5591   -1.8711 H   0  0  0  0  0  0  0  0  0  0  0  0
   -1.2589   -4.1399   -0.3549 H   0  0  0  0  0  0  0  0  0  0  0  0
   -0.8688   -5.1270    1.0589 H   0  0  0  0  0  0  0  0  0  0  0  0
   -1.8483   -0.5471    1.4092 H   0  0  0  0  0  0  0  0  0  0  0  0
   -1.8554    3.6208    0.3631 H   0  0  0  0  0  0  0  0  0  0  0  0
    2.6301   -0.1352    1.6498 H   0  0  0  0  0  0  0  0  0  0  0  0
    2.6216    4.6714   -0.1586 H   0  0  0  0  0  0  0  0  0  0  0  0
    7.6204   -1.1439   -1.1546 H   0  0  0  0  0  0  0  0  0  0  0  0
    6.9654   -1.8470    1.1294 H   0  0  0  0  0  0  0  0  0  0  0  0
    4.2531    0.7533   -3.7990 H   0  0  0  0  0  0  0  0  0  0  0  0
    5.0217    2.2142   -3.1278 H   0  0  0  0  0  0  0  0  0  0  0  0
  1 34  1  0  0  0  0
  2 17  1  0  0  0  0
  2 23  1  0  0  0  0
  3 21  1  0  0  0  0
  3 22  1  0  0  0  0
  4 20  1  0  0  0  0
  4 24  1  0  0  0  0
  5 32  1  0  0  0  0
  5 37  1  0  0  0  0
  6 33  1  0  0  0  0
  6 37  1  0  0  0  0
  7 11  1  0  0  0  0
  7 12  1  0  0  0  0
  7 15  1  0  0  0  0
  8 29  1  0  0  0  0
  8 30  1  0  0  0  0
  8 63  1  0  0  0  0
  9 27  1  0  0  0  0
  9 31  2  0  0  0  0
 10 29  2  0  0  0  0
 10 31  1  0  0  0  0
 11 13  1  0  0  0  0
 11 38  1  0  0  0  0
 11 39  1  0  0  0  0
 12 14  1  0  0  0  0
 12 40  1  0  0  0  0
 12 41  1  0  0  0  0
 13 14  1  0  0  0  0
 13 42  1  0  0  0  0
 13 43  1  0  0  0  0
 14 44  1  0  0  0  0
 14 45  1  0  0  0  0
 15 16  1  0  0  0  0
 15 46  1  0  0  0  0
 15 47  1  0  0  0  0
 16 20  1  0  0  0  0
 16 48  1  0  0  0  0
 16 49  1  0  0  0  0
 17 18  1  0  0  0  0
 17 19  1  0  0  0  0
 17 50  1  0  0  0  0
 18 21  1  0  0  0  0
 18 51  1  0  0  0  0
 18 52  1  0  0  0  0
 19 22  1  0  0  0  0
 19 53  1  0  0  0  0
 19 54  1  0  0  0  0
 20 55  1  0  0  0  0
 20 56  1  0  0  0  0
 21 57  1  0  0  0  0
 21 58  1  0  0  0  0
 22 59  1  0  0  0  0
 22 60  1  0  0  0  0
 23 25  1  0  0  0  0
 23 26  2  0  0  0  0
 24 26  1  0  0  0  0
 24 28  2  0  0  0  0
 25 27  2  0  0  0  0
 25 29  1  0  0  0  0
 26 61  1  0  0  0  0
 27 28  1  0  0  0  0
 28 62  1  0  0  0  0
 30 32  1  0  0  0  0
 30 34  2  0  0  0  0
 31 64  1  0  0  0  0
 32 33  2  0  0  0  0
 33 35  1  0  0  0  0
 34 36  1  0  0  0  0
 35 36  2  0  0  0  0
 35 65  1  0  0  0  0
 36 66  1  0  0  0  0
 37 67  1  0  0  0  0
 37 68  1  0  0  0  0
M  END
> <PUBCHEM_COMPOUND_CID>
10301884

> <PUBCHEM_CONFORMER_RMSD>
1.2

> <PUBCHEM_CONFORMER_DIVERSEORDER>
1
84
67
120
88
128
66
75
80
134
82
40
124
99
64
61
133
102
91
62
132
95
76
44
137
127
96
28
57
47
92
118
122
85
71
3
21
86
108
110
52
30
140
37
46
126
107
45
121
36
58
60
81
109
48
59
143
50
105
20
114
27
35
136
49
23
106
117
15
101
63
83
13
14
94
70
115
32
138
51
112
98
125
79
33
129
131
119
56
90
54
22
4
111
17
8
130
116
19
139
9
103
25
113
41
29
6
74
72
16
7
89
53
97
18
123
2
42
87
135
39
34
26
38
65
24
104
5
73
69
93
12
100
141
11
10
55
78
43
68
142
77
31

> <PUBCHEM_MMFF94_PARTIAL_CHARGES>
37
1 -0.18
10 -0.62
11 0.27
12 0.27
15 0.27
17 0.28
2 -0.36
20 0.28
21 0.28
22 0.28
23 0.08
24 0.08
26 -0.15
27 0.31
28 -0.15
29 0.41
3 -0.56
30 0.1
31 0.47
32 0.08
33 0.08
34 0.18
35 -0.15
36 -0.15
37 0.56
4 -0.36
5 -0.36
6 -0.36
61 0.15
62 0.15
63 0.4
64 0.15
65 0.15
66 0.15
7 -0.81
8 -0.6
9 -0.62

> <PUBCHEM_EFFECTIVE_ROTOR_COUNT>
11.8

> <PUBCHEM_PHARMACOPHORE_FEATURES>
15
1 2 acceptor
1 3 acceptor
1 4 acceptor
1 5 acceptor
1 6 acceptor
1 7 cation
1 8 donor
3 8 10 29 cation
3 9 10 31 cation
5 5 6 32 33 37 rings
5 7 11 12 13 14 rings
6 23 24 25 26 27 28 rings
6 3 17 18 19 21 22 rings
6 30 32 33 34 35 36 rings
6 9 10 25 27 29 31 rings

> <PUBCHEM_HEAVY_ATOM_COUNT>
37

> <PUBCHEM_ATOM_DEF_STEREO_COUNT>
0

> <PUBCHEM_ATOM_UDEF_STEREO_COUNT>
0

> <PUBCHEM_BOND_DEF_STEREO_COUNT>
0

> <PUBCHEM_BOND_UDEF_STEREO_COUNT>
0

> <PUBCHEM_ISOTOPIC_ATOM_COUNT>
0

> <PUBCHEM_COMPONENT_COUNT>
1

> <PUBCHEM_CACTVS_TAUTO_COUNT>
3

> <PUBCHEM_CONFORMER_ID>
009D31BC00000001

> <PUBCHEM_MMFF94_ENERGY>
121.2539

> <PUBCHEM_FEATURE_SELFOVERLAP>
76.455

> <PUBCHEM_SHAPE_FINGERPRINT>
10 15 11312056561103990721
10483366 6 18412547617324740455
10693767 8 18201725002935969839
11607047 74 17273687869931533384
11991303 11 17822577213180752331
12522641 33 18270113668512028968
12838863 1 18337669703559182698
13617811 41 18411139116990807692
13692114 37 18272640281876558147
14068700 675 18272089379311794129
14117953 113 18412826875940031927
15131766 46 15359695412716887438
15347590 135 11167952337926447005
15439362 3 18193836183206571277
15484559 13 18411419535569087471
20028762 73 18273494567850478791
20771845 171 18114466664986861642
20775438 99 17841979280830608828
21033648 29 13479426014673635140
21344244 246 18341615854395401407
21781051 124 18187937226155800763
22956985 138 17832417597415372570
23576562 1 18043542809001812813
24893992 56 18412260680136261543
4093350 32 14129331880311970049

> <PUBCHEM_SHAPE_MULTIPOLES>
714.04
22.57
4.46
1.87
63.7
2.55
-0.81
2.75
-12.05
-2.38
0.43
-3.16
0.1
-2.07

> <PUBCHEM_SHAPE_SELFOVERLAP>
1549.99

> <PUBCHEM_SHAPE_VOLUME>
390.5

> <PUBCHEM_COORDINATE_TYPE>
2
5
10

$$$$
