136027067
  -OEChem-10052115183D

 32 34  0     0  0  0  0  0  0999 V2000
    4.2431   -3.8261    0.1664 Br  0  0  0  0  0  0  0  0  0  0  0  0
   -4.8948   -0.5043    0.2549 O   0  0  0  0  0  0  0  0  0  0  0  0
    0.8822    3.6463   -0.2529 O   0  0  0  0  0  0  0  0  0  0  0  0
   -3.1105   -0.7166   -1.1913 O   0  0  0  0  0  0  0  0  0  0  0  0
    0.3828    1.4825    0.1745 N   0  0  0  0  0  0  0  0  0  0  0  0
    2.5632    2.0098   -0.3575 N   0  0  0  0  0  0  0  0  0  0  0  0
   -0.4423   -0.4989    0.6428 N   0  0  0  0  0  0  0  0  0  0  0  0
   -0.9201    1.7296    0.4084 N   0  0  0  0  0  0  0  0  0  0  0  0
    2.0079   -0.3207    0.1066 C   0  0  0  0  0  0  0  0  0  0  0  0
    0.6567    0.1440    0.3180 C   0  0  0  0  0  0  0  0  0  0  0  0
    2.9577    0.6536   -0.2367 C   0  0  0  0  0  0  0  0  0  0  0  0
   -1.3700    0.5034    0.6856 C   0  0  0  0  0  0  0  0  0  0  0  0
    1.2768    2.4937   -0.1625 C   0  0  0  0  0  0  0  0  0  0  0  0
    2.3871   -1.6572    0.2275 C   0  0  0  0  0  0  0  0  0  0  0  0
   -2.7771    0.2494    1.0163 C   0  0  0  0  0  0  0  0  0  0  0  0
    4.2864    0.2918   -0.4588 C   0  0  0  0  0  0  0  0  0  0  0  0
    3.7175   -2.0168    0.0046 C   0  0  0  0  0  0  0  0  0  0  0  0
    4.6630   -1.0465   -0.3373 C   0  0  0  0  0  0  0  0  0  0  0  0
   -3.5850   -0.3793   -0.1152 C   0  0  0  0  0  0  0  0  0  0  0  0
   -5.7598   -1.0849   -0.7265 C   0  0  0  0  0  0  0  0  0  0  0  0
   -7.1648   -1.1529   -0.1670 C   0  0  0  0  0  0  0  0  0  0  0  0
    3.2864    2.6787   -0.6079 H   0  0  0  0  0  0  0  0  0  0  0  0
    1.6512   -2.4124    0.4936 H   0  0  0  0  0  0  0  0  0  0  0  0
   -2.8274   -0.4308    1.8745 H   0  0  0  0  0  0  0  0  0  0  0  0
   -3.2728    1.1863    1.2974 H   0  0  0  0  0  0  0  0  0  0  0  0
    5.0315    1.0363   -0.7251 H   0  0  0  0  0  0  0  0  0  0  0  0
    5.7009   -1.3188   -0.5124 H   0  0  0  0  0  0  0  0  0  0  0  0
   -5.7513   -0.4674   -1.6317 H   0  0  0  0  0  0  0  0  0  0  0  0
   -5.4094   -2.0938   -0.9710 H   0  0  0  0  0  0  0  0  0  0  0  0
   -7.1861   -1.7524    0.7490 H   0  0  0  0  0  0  0  0  0  0  0  0
   -7.5224   -0.1528    0.0992 H   0  0  0  0  0  0  0  0  0  0  0  0
   -7.8541   -1.5928   -0.8932 H   0  0  0  0  0  0  0  0  0  0  0  0
  1 17  1  0  0  0  0
  2 19  1  0  0  0  0
  2 20  1  0  0  0  0
  3 13  2  0  0  0  0
  4 19  2  0  0  0  0
  5  8  1  0  0  0  0
  5 10  1  0  0  0  0
  5 13  1  0  0  0  0
  6 11  1  0  0  0  0
  6 13  1  0  0  0  0
  6 22  1  0  0  0  0
  7 10  2  0  0  0  0
  7 12  1  0  0  0  0
  8 12  2  0  0  0  0
  9 10  1  0  0  0  0
  9 11  2  0  0  0  0
  9 14  1  0  0  0  0
 11 16  1  0  0  0  0
 12 15  1  0  0  0  0
 14 17  2  0  0  0  0
 14 23  1  0  0  0  0
 15 19  1  0  0  0  0
 15 24  1  0  0  0  0
 15 25  1  0  0  0  0
 16 18  2  0  0  0  0
 16 26  1  0  0  0  0
 17 18  1  0  0  0  0
 18 27  1  0  0  0  0
 20 21  1  0  0  0  0
 20 28  1  0  0  0  0
 20 29  1  0  0  0  0
 21 30  1  0  0  0  0
 21 31  1  0  0  0  0
 21 32  1  0  0  0  0
M  END
> <PUBCHEM_COMPOUND_CID>
136027067

> <PUBCHEM_CONFORMER_RMSD>
0.6

> <PUBCHEM_CONFORMER_DIVERSEORDER>
1
39
9
14
28
32
4
43
52
38
17
31
30
16
27
34
48
36
53
54
46
50
15
2
26
6
18
51
33
29
5
23
24
22
49
42
21
19
13
12
25
11
10
47
44
3
41
35
20
37
7
8
45
40

> <PUBCHEM_MMFF94_PARTIAL_CHARGES>
24
1 -0.11
10 0.13
11 0.12
12 0.34
13 0.64
14 -0.15
15 0.24
16 -0.15
17 0.11
18 -0.15
19 0.66
2 -0.43
20 0.28
22 0.37
23 0.15
26 0.15
27 0.15
3 -0.57
4 -0.57
5 0.56
6 -0.55
7 -0.57
8 -0.71
9 0.05

> <PUBCHEM_EFFECTIVE_ROTOR_COUNT>
4

> <PUBCHEM_PHARMACOPHORE_FEATURES>
8
1 1 hydrophobe
1 3 acceptor
1 4 acceptor
1 6 donor
3 7 8 12 cation
5 5 7 8 10 12 rings
6 5 6 9 10 11 13 rings
6 9 11 14 16 17 18 rings

> <PUBCHEM_HEAVY_ATOM_COUNT>
21

> <PUBCHEM_ATOM_DEF_STEREO_COUNT>
0

> <PUBCHEM_ATOM_UDEF_STEREO_COUNT>
0

> <PUBCHEM_BOND_DEF_STEREO_COUNT>
0

> <PUBCHEM_BOND_UDEF_STEREO_COUNT>
0

> <PUBCHEM_ISOTOPIC_ATOM_COUNT>
0

> <PUBCHEM_COMPONENT_COUNT>
1

> <PUBCHEM_CACTVS_TAUTO_COUNT>
-1

> <PUBCHEM_CONFORMER_ID>
081B9BBB00000001

> <PUBCHEM_MMFF94_ENERGY>
36.3609

> <PUBCHEM_FEATURE_SELFOVERLAP>
40.757

> <PUBCHEM_SHAPE_FINGERPRINT>
10411042 1 18265895757508700666
10693767 8 18410845543492774475
12107183 9 18126294047822268985
12236239 1 17988929989741809537
13533116 47 18272651289940203369
13540713 5 18193854647787181472
13862211 1 18409450250652307634
13955234 65 18198340865270500977
14576447 43 18412547604682204390
14767858 380 18262819418921900454
15183329 4 18410006608136572869
15342816 4 18270410399459644054
17492 89 18122624942918639470
1813 80 18271254832441491061
18222031 100 18413389813192966402
19784866 240 18273220794161476127
200 152 18343301461660169913
20028762 73 18271523079199823374
20388580 30 18412265042720065161
20554085 129 17699562860328448400
20612939 158 18335987575069295565
20645477 70 18334574672135226699
21267235 1 18342465832649175222
21285901 2 17676201364371882726
21478907 32 18265615377310417328
221357 26 18261105275677651893
221490 88 18190752022893201571
22224240 67 18129089199733017544
23402539 116 18339361847289499922
23559900 14 18337109097902998721
23622692 118 18192993717276768418
25147074 1 18129400288108417825
270888 7 8718241547733237254
2871803 45 18259987050323472594
3004659 81 18334574637802186811
314194 84 18411989061154511827
351380 3 18131632279152976127
46194498 28 17603866740769701957
465052 167 18272655662185749511
5104073 3 18059293158477118987
5281201 14 18187359948370775797
59682541 52 18335128818070492367
6025842 7 18265054806784962356
70251023 43 18263926536367532258
7164475 11 18190467052382759116
76465 3 18339360739177745378
7970288 3 18339358552802794331

> <PUBCHEM_SHAPE_MULTIPOLES>
400.58
12.67
3.32
0.82
21.37
0.32
0
-11.38
2.26
-4.4
0.15
0.39
-0.08
-0.87

> <PUBCHEM_SHAPE_SELFOVERLAP>
856.901

> <PUBCHEM_SHAPE_VOLUME>
227.2

> <PUBCHEM_COORDINATE_TYPE>
2
5
10

$$$$
