49830610
  -OEChem-10052120443D

 54 57  0     0  0  0  0  0  0999 V2000
   -0.4819   -2.3750    1.8785 F   0  0  0  0  0  0  0  0  0  0  0  0
    2.3724   -4.7289   -1.0665 F   0  0  0  0  0  0  0  0  0  0  0  0
    5.4255   -0.6946    0.3166 O   0  0  0  0  0  0  0  0  0  0  0  0
   -5.3832   -0.7121    1.2519 O   0  0  0  0  0  0  0  0  0  0  0  0
    3.0569    1.8529   -0.1843 N   0  0  0  0  0  0  0  0  0  0  0  0
   -2.5918    1.0396   -0.1589 N   0  0  0  0  0  0  0  0  0  0  0  0
    0.8400    1.1837   -0.3711 N   0  0  0  0  0  0  0  0  0  0  0  0
   -2.7664   -1.1385    0.3046 N   0  0  0  0  0  0  0  0  0  0  0  0
    1.8643    2.5933   -2.0357 N   0  0  0  0  0  0  0  0  0  0  0  0
   -5.1810    1.5559    0.7597 N   0  0  0  0  0  0  0  0  0  0  0  0
    4.6799    1.2525    1.5954 C   0  0  0  0  0  0  0  0  0  0  0  0
    3.2331    1.1349    1.0574 C   0  0  0  0  0  0  0  0  0  0  0  0
    5.7116    0.6682    0.6048 C   0  0  0  0  0  0  0  0  0  0  0  0
    5.0359    2.7245    1.8751 C   0  0  0  0  0  0  0  0  0  0  0  0
    4.7528    0.4735    2.9253 C   0  0  0  0  0  0  0  0  0  0  0  0
   -1.3978    0.4868   -0.5253 C   0  0  0  0  0  0  0  0  0  0  0  0
    1.8683    1.8777   -0.8948 C   0  0  0  0  0  0  0  0  0  0  0  0
   -1.5299   -0.8549   -0.2303 C   0  0  0  0  0  0  0  0  0  0  0  0
   -0.3018    1.2296   -1.0884 C   0  0  0  0  0  0  0  0  0  0  0  0
   -3.3741    0.0228    0.3314 C   0  0  0  0  0  0  0  0  0  0  0  0
   -0.5246   -1.8536   -0.4417 C   0  0  0  0  0  0  0  0  0  0  0  0
   -0.4362    1.9262   -2.2721 C   0  0  0  0  0  0  0  0  0  0  0  0
   -3.0893    2.3312   -0.1987 C   0  0  0  0  0  0  0  0  0  0  0  0
   -4.6916    0.3498    0.7870 C   0  0  0  0  0  0  0  0  0  0  0  0
    0.6911    2.5961   -2.7019 C   0  0  0  0  0  0  0  0  0  0  0  0
   -0.0288   -2.5895    0.6346 C   0  0  0  0  0  0  0  0  0  0  0  0
   -0.0418   -2.0892   -1.7291 C   0  0  0  0  0  0  0  0  0  0  0  0
   -4.3425    2.5440    0.2526 C   0  0  0  0  0  0  0  0  0  0  0  0
    0.9500   -3.5606    0.4237 C   0  0  0  0  0  0  0  0  0  0  0  0
    0.9372   -3.0602   -1.9400 C   0  0  0  0  0  0  0  0  0  0  0  0
    1.4331   -3.7959   -0.8636 C   0  0  0  0  0  0  0  0  0  0  0  0
   -6.6890   -0.3901    1.7038 C   0  0  0  0  0  0  0  0  0  0  0  0
    2.5340    1.5319    1.8051 H   0  0  0  0  0  0  0  0  0  0  0  0
    2.9784    0.0775    0.9097 H   0  0  0  0  0  0  0  0  0  0  0  0
    6.7212    0.7175    1.0288 H   0  0  0  0  0  0  0  0  0  0  0  0
    5.7215    1.2217   -0.3399 H   0  0  0  0  0  0  0  0  0  0  0  0
    4.3048    3.1864    2.5481 H   0  0  0  0  0  0  0  0  0  0  0  0
    6.0202    2.8058    2.3506 H   0  0  0  0  0  0  0  0  0  0  0  0
    5.0704    3.3213    0.9579 H   0  0  0  0  0  0  0  0  0  0  0  0
    5.7638    0.5047    3.3469 H   0  0  0  0  0  0  0  0  0  0  0  0
    4.0703    0.8992    3.6698 H   0  0  0  0  0  0  0  0  0  0  0  0
    4.4799   -0.5791    2.7914 H   0  0  0  0  0  0  0  0  0  0  0  0
    3.8273    2.3749   -0.5840 H   0  0  0  0  0  0  0  0  0  0  0  0
    6.1083   -1.0052   -0.3021 H   0  0  0  0  0  0  0  0  0  0  0  0
   -1.3552    1.9508   -2.8444 H   0  0  0  0  0  0  0  0  0  0  0  0
   -2.4646    3.1284   -0.5796 H   0  0  0  0  0  0  0  0  0  0  0  0
    0.6823    3.1694   -3.6227 H   0  0  0  0  0  0  0  0  0  0  0  0
   -0.4202   -1.5343   -2.5844 H   0  0  0  0  0  0  0  0  0  0  0  0
   -4.7609    3.5447    0.2379 H   0  0  0  0  0  0  0  0  0  0  0  0
    1.3363   -4.1333    1.2615 H   0  0  0  0  0  0  0  0  0  0  0  0
    1.3122   -3.2451   -2.9422 H   0  0  0  0  0  0  0  0  0  0  0  0
   -6.6536    0.3090    2.5460 H   0  0  0  0  0  0  0  0  0  0  0  0
   -7.3020    0.0072    0.8880 H   0  0  0  0  0  0  0  0  0  0  0  0
   -7.1598   -1.3129    2.0559 H   0  0  0  0  0  0  0  0  0  0  0  0
  1 26  1  0  0  0  0
  2 31  1  0  0  0  0
  3 13  1  0  0  0  0
  3 44  1  0  0  0  0
  4 24  1  0  0  0  0
  4 32  1  0  0  0  0
  5 12  1  0  0  0  0
  5 17  1  0  0  0  0
  5 43  1  0  0  0  0
  6 16  1  0  0  0  0
  6 20  1  0  0  0  0
  6 23  1  0  0  0  0
  7 17  1  0  0  0  0
  7 19  2  0  0  0  0
  8 18  1  0  0  0  0
  8 20  2  0  0  0  0
  9 17  2  0  0  0  0
  9 25  1  0  0  0  0
 10 24  2  0  0  0  0
 10 28  1  0  0  0  0
 11 12  1  0  0  0  0
 11 13  1  0  0  0  0
 11 14  1  0  0  0  0
 11 15  1  0  0  0  0
 12 33  1  0  0  0  0
 12 34  1  0  0  0  0
 13 35  1  0  0  0  0
 13 36  1  0  0  0  0
 14 37  1  0  0  0  0
 14 38  1  0  0  0  0
 14 39  1  0  0  0  0
 15 40  1  0  0  0  0
 15 41  1  0  0  0  0
 15 42  1  0  0  0  0
 16 18  2  0  0  0  0
 16 19  1  0  0  0  0
 18 21  1  0  0  0  0
 19 22  1  0  0  0  0
 20 24  1  0  0  0  0
 21 26  2  0  0  0  0
 21 27  1  0  0  0  0
 22 25  2  0  0  0  0
 22 45  1  0  0  0  0
 23 28  2  0  0  0  0
 23 46  1  0  0  0  0
 25 47  1  0  0  0  0
 26 29  1  0  0  0  0
 27 30  2  0  0  0  0
 27 48  1  0  0  0  0
 28 49  1  0  0  0  0
 29 31  2  0  0  0  0
 29 50  1  0  0  0  0
 30 31  1  0  0  0  0
 30 51  1  0  0  0  0
 32 52  1  0  0  0  0
 32 53  1  0  0  0  0
 32 54  1  0  0  0  0
M  END
> <PUBCHEM_COMPOUND_CID>
49830610

> <PUBCHEM_CONFORMER_RMSD>
1

> <PUBCHEM_CONFORMER_DIVERSEORDER>
1
67
63
89
39
32
50
20
68
15
59
17
49
57
84
52
9
40
82
43
83
77
66
69
46
72
88
4
51
34
5
76
80
25
28
16
41
65
22
3
44
85
64
37
2
73
71
87
61
11
74
79
35
70
45
78
47
42
38
19
26
30
13
10
53
33
58
12
86
75
14
60
7
18
23
27
6
21
54
48
55
24
8
29
56
31
81
36
62

> <PUBCHEM_MMFF94_PARTIAL_CHARGES>
38
1 -0.19
10 -0.62
12 0.37
13 0.28
16 -0.2
17 0.72
18 0.17
19 0.36
2 -0.19
20 0.1
21 0.05
22 -0.15
23 -0.18
24 0.69
25 0.16
26 0.19
27 -0.15
28 0.02
29 -0.15
3 -0.68
30 -0.15
31 0.19
32 0.28
4 -0.43
43 0.4
44 0.4
45 0.15
46 0.15
47 0.15
48 0.15
49 0.15
5 -0.87
50 0.15
51 0.15
6 0.33
7 -0.62
8 -0.57
9 -0.62

> <PUBCHEM_EFFECTIVE_ROTOR_COUNT>
7

> <PUBCHEM_PHARMACOPHORE_FEATURES>
11
1 3 acceptor
1 3 donor
1 5 donor
1 7 acceptor
3 11 14 15 hydrophobe
3 6 8 20 cation
4 5 7 9 17 cation
5 6 8 16 18 20 rings
6 21 26 27 29 30 31 rings
6 6 10 20 23 24 28 rings
6 7 9 17 19 22 25 rings

> <PUBCHEM_HEAVY_ATOM_COUNT>
32

> <PUBCHEM_ATOM_DEF_STEREO_COUNT>
0

> <PUBCHEM_ATOM_UDEF_STEREO_COUNT>
0

> <PUBCHEM_BOND_DEF_STEREO_COUNT>
0

> <PUBCHEM_BOND_UDEF_STEREO_COUNT>
0

> <PUBCHEM_ISOTOPIC_ATOM_COUNT>
0

> <PUBCHEM_COMPONENT_COUNT>
1

> <PUBCHEM_CACTVS_TAUTO_COUNT>
3

> <PUBCHEM_CONFORMER_ID>
02F85AD200000001

> <PUBCHEM_MMFF94_ENERGY>
94.2603

> <PUBCHEM_FEATURE_SELFOVERLAP>
55.937

> <PUBCHEM_SHAPE_FINGERPRINT>
11552529 35 17692225845132027184
11582403 64 16988554719192346404
11607047 141 16914008841180370707
12422481 6 18262788571701869560
12553582 1 17605254342278308608
12633257 1 17531529879204832979
12741549 16 16909168635431950163
12788726 201 17472710598407610694
12839892 36 18337397161939880723
12925494 130 18125717886064752673
13004483 165 16978691236771457486
13140716 1 17980216497953001641
13402501 40 18338799997338791206
13540713 4 18191591852994258157
13692114 37 18269280221919147491
14739800 52 17416980443527087849
14840074 17 18113609123616484620
150020 26 17759205563776014498
15064986 96 18267852896426500146
15420108 30 18270669892535452847
15775530 1 17540514839209008756
16110190 28 18115019827363650704
16994733 274 15913336801443552161
17913733 40 18202570562106414843
1813 80 16950280702661181348
1979834 28 18409736153069984753
20505436 4 17319038399645115284
20554085 129 18059585719081171305
21033648 29 18058723736735774810
22149856 69 18126034692364801171
22182313 1 17898003526135764029
23419403 2 17905038162448106533
23559900 14 18117856412817765103
23598288 3 17469619858400028710
23728640 28 18124024904445527138
27425 322 16557031641227850026
3411729 13 18340768122571793897
3493558 16 17627514834912127176
5104073 3 18196954179951015169
5171179 24 17690826879156246765
5265222 85 18340214102388631108

> <PUBCHEM_SHAPE_MULTIPOLES>
602.37
11.49
4.75
2.32
2.62
5.19
-0.27
-6.73
10.68
-2.77
-1.97
-1.57
-0.83
1.47

> <PUBCHEM_SHAPE_SELFOVERLAP>
1320.141

> <PUBCHEM_SHAPE_VOLUME>
329.1

> <PUBCHEM_COORDINATE_TYPE>
2
5
10

$$$$
