49830878
  -OEChem-10062121553D

 38 40  0     0  0  0  0  0  0999 V2000
    5.8011   -0.2586   -0.6855 F   0  0  0  0  0  0  0  0  0  0  0  0
   -6.0140    0.7371   -1.4929 O   0  0  0  0  0  0  0  0  0  0  0  0
   -1.6097    1.2820    0.5513 N   0  0  0  0  0  0  0  0  0  0  0  0
    0.1489    2.6176    0.3150 N   0  0  0  0  0  0  0  0  0  0  0  0
   -0.8121   -3.7721    0.2555 N   0  0  0  0  0  0  0  0  0  0  0  0
   -2.9857    0.8936    0.7582 C   0  0  0  0  0  0  0  0  0  0  0  0
   -0.5380    0.4579    0.3521 C   0  0  0  0  0  0  0  0  0  0  0  0
    0.5356    1.3050    0.2091 C   0  0  0  0  0  0  0  0  0  0  0  0
   -3.8609    1.0383   -0.4886 C   0  0  0  0  0  0  0  0  0  0  0  0
   -0.6306   -0.9834    0.3191 C   0  0  0  0  0  0  0  0  0  0  0  0
   -1.1485    2.5688    0.5208 C   0  0  0  0  0  0  0  0  0  0  0  0
    1.8942    0.9015   -0.0218 C   0  0  0  0  0  0  0  0  0  0  0  0
   -5.2866    0.5376   -0.2877 C   0  0  0  0  0  0  0  0  0  0  0  0
   -0.4860   -1.7192    1.4901 C   0  0  0  0  0  0  0  0  0  0  0  0
   -0.8659   -1.6405   -0.8836 C   0  0  0  0  0  0  0  0  0  0  0  0
    2.2184    0.1610   -1.1586 C   0  0  0  0  0  0  0  0  0  0  0  0
    2.8900    1.2503    0.8906 C   0  0  0  0  0  0  0  0  0  0  0  0
    3.5381   -0.2310   -1.3829 C   0  0  0  0  0  0  0  0  0  0  0  0
    4.2097    0.8584    0.6665 C   0  0  0  0  0  0  0  0  0  0  0  0
   -0.5843   -3.0987    1.4055 C   0  0  0  0  0  0  0  0  0  0  0  0
   -0.9474   -3.0235   -0.8620 C   0  0  0  0  0  0  0  0  0  0  0  0
    4.5338    0.1178   -0.4702 C   0  0  0  0  0  0  0  0  0  0  0  0
   -3.0143   -0.1359    1.1286 H   0  0  0  0  0  0  0  0  0  0  0  0
   -3.3777    1.5253    1.5649 H   0  0  0  0  0  0  0  0  0  0  0  0
   -3.4081    0.4958   -1.3289 H   0  0  0  0  0  0  0  0  0  0  0  0
   -3.8874    2.0880   -0.8089 H   0  0  0  0  0  0  0  0  0  0  0  0
   -1.7978    3.4236    0.6531 H   0  0  0  0  0  0  0  0  0  0  0  0
   -5.7831    1.0903    0.5160 H   0  0  0  0  0  0  0  0  0  0  0  0
   -5.2939   -0.5299   -0.0464 H   0  0  0  0  0  0  0  0  0  0  0  0
   -0.3018   -1.2424    2.4474 H   0  0  0  0  0  0  0  0  0  0  0  0
   -0.9884   -1.1013   -1.8175 H   0  0  0  0  0  0  0  0  0  0  0  0
    1.4651   -0.1050   -1.8954 H   0  0  0  0  0  0  0  0  0  0  0  0
    2.6544    1.8260    1.7826 H   0  0  0  0  0  0  0  0  0  0  0  0
    3.7917   -0.8037   -2.2700 H   0  0  0  0  0  0  0  0  0  0  0  0
    4.9852    1.1293    1.3769 H   0  0  0  0  0  0  0  0  0  0  0  0
   -0.4790   -3.7182    2.2900 H   0  0  0  0  0  0  0  0  0  0  0  0
   -1.1306   -3.5832   -1.7732 H   0  0  0  0  0  0  0  0  0  0  0  0
   -6.9166    0.4104   -1.3381 H   0  0  0  0  0  0  0  0  0  0  0  0
  1 22  1  0  0  0  0
  2 13  1  0  0  0  0
  2 38  1  0  0  0  0
  3  6  1  0  0  0  0
  3  7  1  0  0  0  0
  3 11  1  0  0  0  0
  4  8  1  0  0  0  0
  4 11  2  0  0  0  0
  5 20  2  0  0  0  0
  5 21  1  0  0  0  0
  6  9  1  0  0  0  0
  6 23  1  0  0  0  0
  6 24  1  0  0  0  0
  7  8  2  0  0  0  0
  7 10  1  0  0  0  0
  8 12  1  0  0  0  0
  9 13  1  0  0  0  0
  9 25  1  0  0  0  0
  9 26  1  0  0  0  0
 10 14  2  0  0  0  0
 10 15  1  0  0  0  0
 11 27  1  0  0  0  0
 12 16  2  0  0  0  0
 12 17  1  0  0  0  0
 13 28  1  0  0  0  0
 13 29  1  0  0  0  0
 14 20  1  0  0  0  0
 14 30  1  0  0  0  0
 15 21  2  0  0  0  0
 15 31  1  0  0  0  0
 16 18  1  0  0  0  0
 16 32  1  0  0  0  0
 17 19  2  0  0  0  0
 17 33  1  0  0  0  0
 18 22  2  0  0  0  0
 18 34  1  0  0  0  0
 19 22  1  0  0  0  0
 19 35  1  0  0  0  0
 20 36  1  0  0  0  0
 21 37  1  0  0  0  0
M  END
> <PUBCHEM_COMPOUND_CID>
49830878

> <PUBCHEM_CONFORMER_RMSD>
0.8

> <PUBCHEM_CONFORMER_DIVERSEORDER>
1
5
7
9
3
4
8
11
6
10
2

> <PUBCHEM_MMFF94_PARTIAL_CHARGES>
31
1 -0.19
10 0.05
11 0.04
12 0.05
13 0.28
14 -0.15
15 -0.15
16 -0.15
17 -0.15
18 -0.15
19 -0.15
2 -0.68
20 0.16
21 0.16
22 0.19
27 0.15
3 0.05
30 0.15
31 0.15
32 0.15
33 0.15
34 0.15
35 0.15
36 0.15
37 0.15
38 0.4
4 -0.57
5 -0.62
6 0.26
7 -0.2
8 0.17

> <PUBCHEM_EFFECTIVE_ROTOR_COUNT>
5

> <PUBCHEM_PHARMACOPHORE_FEATURES>
7
1 2 acceptor
1 2 donor
1 5 acceptor
3 3 4 11 cation
5 3 4 7 8 11 rings
6 12 16 17 18 19 22 rings
6 5 10 14 15 20 21 rings

> <PUBCHEM_HEAVY_ATOM_COUNT>
22

> <PUBCHEM_ATOM_DEF_STEREO_COUNT>
0

> <PUBCHEM_ATOM_UDEF_STEREO_COUNT>
0

> <PUBCHEM_BOND_DEF_STEREO_COUNT>
0

> <PUBCHEM_BOND_UDEF_STEREO_COUNT>
0

> <PUBCHEM_ISOTOPIC_ATOM_COUNT>
0

> <PUBCHEM_COMPONENT_COUNT>
1

> <PUBCHEM_CACTVS_TAUTO_COUNT>
1

> <PUBCHEM_CONFORMER_ID>
02F85BDE00000001

> <PUBCHEM_MMFF94_ENERGY>
49.0651

> <PUBCHEM_FEATURE_SELFOVERLAP>
35.522

> <PUBCHEM_SHAPE_FINGERPRINT>
10366900 7 17917723392039835060
10693767 8 18058998489894014687
10906281 52 18129964358784604244
11578080 2 16340598386786207363
116883 192 17909263929563439375
12011746 2 18342181046700968508
12035758 1 18269290095700029123
12293681 25 17844557489674740726
12363563 72 17978234082398213666
12553582 1 17691706888296471062
12715332 25 18272094954326133955
12969540 114 18335972117291879149
13052359 8 18262240022921932923
13083527 12 17901647286263740787
13140716 1 18197512915913875080
13149001 5 18268145538423954213
13257819 101 16660914496759070959
133893 2 17536321327566716409
14115302 16 18261683652942707716
15163728 17 16879649063397802717
15849732 13 17675927599156977676
16752209 62 18188770690081538171
200 152 15626224598183439964
20028762 73 18057896921240978487
20197701 30 18335134280836284791
20567600 347 18334859364433007483
20602899 9 16630530643370451118
20645476 183 17603595148428401280
21344244 181 18060144240992168719
22713019 99 18272653432939285037
23402539 116 18202001001724012621
23559900 14 18342180007756972856
23728640 28 18410018719512208002
266924 87 18121497960268380453
283562 15 18270685242633043913
3060560 45 18335408076654336125
3178227 256 18336557088065048617
3383291 50 18268149760762493370
3759504 43 17894914057253943211
43471831 8 18193280689046317905
59755656 215 18341612564797839765
59755656 520 18260823800083990295
6138700 20 18339645521136764718
69090 78 18130788949365397980
7495541 125 13038605415277989285
81228 2 18267870664642731104
9709674 26 18200030801825828112

> <PUBCHEM_SHAPE_MULTIPOLES>
424.66
9.03
3.35
1.28
0.73
3.19
-0.04
-3.88
-3.74
1.91
0.81
0.07
0.45
0.61

> <PUBCHEM_SHAPE_SELFOVERLAP>
923.711

> <PUBCHEM_SHAPE_VOLUME>
234.2

> <PUBCHEM_COORDINATE_TYPE>
2
5
10

$$$$
