15745967
  -OEChem-10052120443D

 26 28  0     0  0  0  0  0  0999 V2000
   -1.7883   -2.9438    0.2357 Cl  0  0  0  0  0  0  0  0  0  0  0  0
   -4.6932    0.1133   -0.0190 S   0  0  0  0  0  0  0  0  0  0  0  0
    5.7860    0.2620   -0.0066 O   0  0  0  0  0  0  0  0  0  0  0  0
    0.2898   -0.5828    0.0464 N   0  0  0  0  0  0  0  0  0  0  0  0
   -0.5664    1.6145   -0.1334 N   0  0  0  0  0  0  0  0  0  0  0  0
   -2.9390    2.1122   -0.1790 N   0  0  0  0  0  0  0  0  0  0  0  0
   -2.1284   -0.1799    0.0101 C   0  0  0  0  0  0  0  0  0  0  0  0
   -0.8120    0.2911   -0.0258 C   0  0  0  0  0  0  0  0  0  0  0  0
   -3.1266    0.7824   -0.0706 C   0  0  0  0  0  0  0  0  0  0  0  0
    1.6831   -0.3680    0.0323 C   0  0  0  0  0  0  0  0  0  0  0  0
   -2.6919   -1.4905    0.1160 C   0  0  0  0  0  0  0  0  0  0  0  0
    2.5337   -1.3410   -0.4932 C   0  0  0  0  0  0  0  0  0  0  0  0
    2.2121    0.8166    0.5450 C   0  0  0  0  0  0  0  0  0  0  0  0
   -4.0698   -1.4743    0.1117 C   0  0  0  0  0  0  0  0  0  0  0  0
    3.9124   -1.1296   -0.5059 C   0  0  0  0  0  0  0  0  0  0  0  0
    3.5908    1.0283    0.5320 C   0  0  0  0  0  0  0  0  0  0  0  0
   -1.6334    2.4346   -0.2026 C   0  0  0  0  0  0  0  0  0  0  0  0
    4.4410    0.0551    0.0068 C   0  0  0  0  0  0  0  0  0  0  0  0
    0.0358   -1.5644   -0.0148 H   0  0  0  0  0  0  0  0  0  0  0  0
    2.1342   -2.2682   -0.8964 H   0  0  0  0  0  0  0  0  0  0  0  0
    1.5905    1.5815    0.9985 H   0  0  0  0  0  0  0  0  0  0  0  0
   -4.7457   -2.3157    0.1788 H   0  0  0  0  0  0  0  0  0  0  0  0
    4.5639   -1.8954   -0.9183 H   0  0  0  0  0  0  0  0  0  0  0  0
    3.9977    1.9494    0.9402 H   0  0  0  0  0  0  0  0  0  0  0  0
   -1.4093    3.4921   -0.2885 H   0  0  0  0  0  0  0  0  0  0  0  0
    6.2199   -0.5120   -0.4050 H   0  0  0  0  0  0  0  0  0  0  0  0
  1 11  1  0  0  0  0
  2  9  1  0  0  0  0
  2 14  1  0  0  0  0
  3 18  1  0  0  0  0
  3 26  1  0  0  0  0
  4  8  1  0  0  0  0
  4 10  1  0  0  0  0
  4 19  1  0  0  0  0
  5  8  1  0  0  0  0
  5 17  2  0  0  0  0
  6  9  2  0  0  0  0
  6 17  1  0  0  0  0
  7  8  2  0  0  0  0
  7  9  1  0  0  0  0
  7 11  1  0  0  0  0
 10 12  2  0  0  0  0
 10 13  1  0  0  0  0
 11 14  2  0  0  0  0
 12 15  1  0  0  0  0
 12 20  1  0  0  0  0
 13 16  2  0  0  0  0
 13 21  1  0  0  0  0
 14 22  1  0  0  0  0
 15 18  2  0  0  0  0
 15 23  1  0  0  0  0
 16 18  1  0  0  0  0
 16 24  1  0  0  0  0
 17 25  1  0  0  0  0
M  END
> <PUBCHEM_COMPOUND_CID>
15745967

> <PUBCHEM_CONFORMER_RMSD>
0.6

> <PUBCHEM_CONFORMER_DIVERSEORDER>
1
3
4
2

> <PUBCHEM_MMFF94_PARTIAL_CHARGES>
25
1 -0.12
10 0.1
11 0.12
12 -0.15
13 -0.15
14 -0.11
15 -0.15
16 -0.15
17 0.47
18 0.08
19 0.4
2 -0.08
20 0.15
21 0.15
22 0.15
23 0.15
24 0.15
25 0.15
26 0.45
3 -0.53
4 -0.6
5 -0.62
6 -0.57
8 0.41
9 0.3

> <PUBCHEM_EFFECTIVE_ROTOR_COUNT>
2

> <PUBCHEM_PHARMACOPHORE_FEATURES>
8
1 3 donor
1 4 cation
1 4 donor
1 6 acceptor
3 5 6 17 cation
5 2 7 9 11 14 rings
6 10 12 13 15 16 18 rings
6 5 6 7 8 9 17 rings

> <PUBCHEM_HEAVY_ATOM_COUNT>
18

> <PUBCHEM_ATOM_DEF_STEREO_COUNT>
0

> <PUBCHEM_ATOM_UDEF_STEREO_COUNT>
0

> <PUBCHEM_BOND_DEF_STEREO_COUNT>
0

> <PUBCHEM_BOND_UDEF_STEREO_COUNT>
0

> <PUBCHEM_ISOTOPIC_ATOM_COUNT>
0

> <PUBCHEM_COMPONENT_COUNT>
1

> <PUBCHEM_CACTVS_TAUTO_COUNT>
10

> <PUBCHEM_CONFORMER_ID>
00F043AF00000001

> <PUBCHEM_MMFF94_ENERGY>
48.8568

> <PUBCHEM_FEATURE_SELFOVERLAP>
40.677

> <PUBCHEM_SHAPE_FINGERPRINT>
10 15 18271230734546025552
10366900 7 18202556293739682474
10608611 8 18341609309065085312
10616163 171 18411139160104270798
11552529 35 17417247779076080247
11615757 297 17132115757850002170
12107183 9 17613145274920958226
12173636 292 18264767654019612197
12236239 1 17312820476779559866
12390115 104 18128269887039009937
12500047 106 18409443648590884132
13140716 1 18193284224389997483
13167823 11 18187641376124062026
15042514 8 18263931097886667915
15196674 1 18339643343545920182
15375358 24 18342458144620870119
17804303 29 18341051903893357129
17834074 16 18413390929884391682
19141452 34 18201441423958072655
200 152 17489585658109873435
20510252 161 18342458093503119521
20645477 56 18409167688600296153
20645477 70 17274548616332728886
21029758 11 18342170094745411977
21079973 296 18411136973970704746
21267235 1 18336835285643991323
221490 88 18413112779644780962
2297311 6 18340498823579401964
23175994 123 17203331112911756616
23402539 116 18409441513971305471
23557571 272 18343590629113348308
23559900 14 18412539920779957544
283562 15 18339077087137802017
2871803 45 18409444782436155750
3545911 37 18412826871987585620
4028521 119 18334006164736698077
4214541 1 18411138000494301112
474 4 16878800442717333916
5104073 3 18341329990293703450
69090 78 18341891887832683663
77779 3 18412546487900880668
8809292 202 18410013264407661763
9709674 26 18341899571429196550

> <PUBCHEM_SHAPE_MULTIPOLES>
355.34
10.09
2.4
0.68
7.85
0.32
-0.01
0.55
0.06
-2.09
0.02
0.13
0.03
0.66

> <PUBCHEM_SHAPE_SELFOVERLAP>
763.635

> <PUBCHEM_SHAPE_VOLUME>
198.2

> <PUBCHEM_COORDINATE_TYPE>
2
5
10

$$$$
