44575127
  -OEChem-10062122023D

 44 47  0     1  0  0  0  0  0999 V2000
   -4.0181    3.6319    0.0482 S   0  0  0  0  0  0  0  0  0  0  0  0
    3.7690   -1.7023   -0.5026 O   0  0  0  0  0  0  0  0  0  0  0  0
    2.0336   -3.7658   -1.9355 O   0  0  0  0  0  0  0  0  0  0  0  0
    1.3136   -0.6479    1.2790 N   0  0  0  0  0  0  0  0  0  0  0  0
   -0.5953   -2.9192   -0.2983 N   0  0  0  0  0  0  0  0  0  0  0  0
   -4.1507   -0.8032    0.5205 N   0  0  0  0  0  0  0  0  0  0  0  0
    2.4360    0.1961    1.6662 C   0  0  1  0  0  0  0  0  0  0  0  0
    1.4096   -1.5733    0.3621 C   0  0  0  0  0  0  0  0  0  0  0  0
    0.6382   -2.4907   -0.2755 C   0  0  0  0  0  0  0  0  0  0  0  0
    2.6342    1.3073    0.6914 C   0  0  0  0  0  0  0  0  0  0  0  0
    2.6008   -1.9660   -0.3875 C   0  0  0  0  0  0  0  0  0  0  0  0
    1.7618   -2.9639   -1.0809 C   0  0  0  0  0  0  0  0  0  0  0  0
    2.1995    0.6674    3.1089 C   0  0  0  0  0  0  0  0  0  0  0  0
   -1.7940   -2.2053   -0.0221 C   0  0  0  0  0  0  0  0  0  0  0  0
    1.5367    1.8586    0.0303 C   0  0  0  0  0  0  0  0  0  0  0  0
    3.9166    1.7952    0.4410 C   0  0  0  0  0  0  0  0  0  0  0  0
   -1.8698   -0.8410   -0.2801 C   0  0  0  0  0  0  0  0  0  0  0  0
    1.7217    2.8980   -0.8815 C   0  0  0  0  0  0  0  0  0  0  0  0
    4.1017    2.8344   -0.4707 C   0  0  0  0  0  0  0  0  0  0  0  0
   -3.0600   -0.1919    0.0064 C   0  0  0  0  0  0  0  0  0  0  0  0
   -2.8952   -2.8693    0.5070 C   0  0  0  0  0  0  0  0  0  0  0  0
    3.0042    3.3859   -1.1320 C   0  0  0  0  0  0  0  0  0  0  0  0
   -3.1946    1.2153   -0.2394 C   0  0  0  0  0  0  0  0  0  0  0  0
   -4.0395   -2.1295    0.7581 C   0  0  0  0  0  0  0  0  0  0  0  0
   -2.5366    1.9796   -1.2460 C   0  0  0  0  0  0  0  0  0  0  0  0
   -4.0295    1.9903    0.5354 C   0  0  0  0  0  0  0  0  0  0  0  0
   -2.8939    3.3092   -1.2025 C   0  0  0  0  0  0  0  0  0  0  0  0
    3.3457   -0.4183    1.7034 H   0  0  0  0  0  0  0  0  0  0  0  0
    0.4260   -0.4391    1.7310 H   0  0  0  0  0  0  0  0  0  0  0  0
    3.0434    1.2670    3.4671 H   0  0  0  0  0  0  0  0  0  0  0  0
    2.0761   -0.1867    3.7840 H   0  0  0  0  0  0  0  0  0  0  0  0
    1.2972    1.2855    3.1843 H   0  0  0  0  0  0  0  0  0  0  0  0
   -0.8059   -3.8391   -0.6821 H   0  0  0  0  0  0  0  0  0  0  0  0
    0.5224    1.5201    0.2195 H   0  0  0  0  0  0  0  0  0  0  0  0
    4.7801    1.3755    0.9503 H   0  0  0  0  0  0  0  0  0  0  0  0
   -1.0260   -0.3066   -0.7034 H   0  0  0  0  0  0  0  0  0  0  0  0
    0.8665    3.3312   -1.3921 H   0  0  0  0  0  0  0  0  0  0  0  0
    5.1002    3.2148   -0.6654 H   0  0  0  0  0  0  0  0  0  0  0  0
   -2.8697   -3.9325    0.7209 H   0  0  0  0  0  0  0  0  0  0  0  0
    3.1481    4.1961   -1.8408 H   0  0  0  0  0  0  0  0  0  0  0  0
   -4.9258   -2.6001    1.1708 H   0  0  0  0  0  0  0  0  0  0  0  0
   -1.8388    1.5904   -1.9770 H   0  0  0  0  0  0  0  0  0  0  0  0
   -4.6492    1.6936    1.3711 H   0  0  0  0  0  0  0  0  0  0  0  0
   -2.5491    4.1063   -1.8460 H   0  0  0  0  0  0  0  0  0  0  0  0
  1 26  1  0  0  0  0
  1 27  1  0  0  0  0
  2 11  2  0  0  0  0
  3 12  2  0  0  0  0
  4  7  1  0  0  0  0
  4  8  1  0  0  0  0
  4 29  1  0  0  0  0
  5  9  1  0  0  0  0
  5 14  1  0  0  0  0
  5 33  1  0  0  0  0
  6 20  2  0  0  0  0
  6 24  1  0  0  0  0
  7 10  1  0  0  0  0
  7 13  1  0  0  0  0
  7 28  1  0  0  0  0
  8  9  2  0  0  0  0
  8 11  1  0  0  0  0
  9 12  1  0  0  0  0
 10 15  2  0  0  0  0
 10 16  1  0  0  0  0
 11 12  1  0  0  0  0
 13 30  1  0  0  0  0
 13 31  1  0  0  0  0
 13 32  1  0  0  0  0
 14 17  2  0  0  0  0
 14 21  1  0  0  0  0
 15 18  1  0  0  0  0
 15 34  1  0  0  0  0
 16 19  2  0  0  0  0
 16 35  1  0  0  0  0
 17 20  1  0  0  0  0
 17 36  1  0  0  0  0
 18 22  2  0  0  0  0
 18 37  1  0  0  0  0
 19 22  1  0  0  0  0
 19 38  1  0  0  0  0
 20 23  1  0  0  0  0
 21 24  2  0  0  0  0
 21 39  1  0  0  0  0
 22 40  1  0  0  0  0
 23 25  1  0  0  0  0
 23 26  2  0  0  0  0
 24 41  1  0  0  0  0
 25 27  2  0  0  0  0
 25 42  1  0  0  0  0
 26 43  1  0  0  0  0
 27 44  1  0  0  0  0
M  END
> <PUBCHEM_COMPOUND_CID>
44575127

> <PUBCHEM_CONFORMER_RMSD>
1.2

> <PUBCHEM_CONFORMER_DIVERSEORDER>
1
14
91
68
80
12
58
43
66
112
125
111
61
108
83
3
102
27
23
63
98
32
64
29
40
70
48
28
92
41
115
127
33
126
17
114
109
77
67
34
39
45
86
26
75
8
97
88
120
79
65
96
128
104
118
76
84
47
36
81
94
15
103
24
31
117
78
57
53
20
100
55
85
22
106
129
44
69
105
99
107
119
124
101
110
87
72
16
10
13
25
2
122
116
60
113
46
62
90
123
89
35
59
95
4
37
74
50
71
30
121
38
82
52
5
18
6
54
49
93
51
11
42
19
9
7
56
73
21

> <PUBCHEM_MMFF94_PARTIAL_CHARGES>
39
1 -0.08
10 -0.14
11 0.64
12 0.64
14 0.1
15 -0.15
16 -0.15
17 -0.15
18 -0.15
19 -0.15
2 -0.57
20 0.36
21 -0.15
22 -0.15
23 -0.05
24 0.16
25 -0.15
26 -0.11
27 -0.11
29 0.4
3 -0.57
33 0.4
34 0.15
35 0.15
36 0.15
37 0.15
38 0.15
39 0.15
4 -0.87
40 0.15
41 0.15
42 0.15
43 0.15
44 0.15
5 -0.6
6 -0.62
7 0.51
8 0.03
9 0.03

> <PUBCHEM_EFFECTIVE_ROTOR_COUNT>
6

> <PUBCHEM_PHARMACOPHORE_FEATURES>
11
1 2 acceptor
1 3 acceptor
1 4 cation
1 4 donor
1 5 cation
1 5 donor
1 6 acceptor
4 8 9 11 12 rings
5 1 23 25 26 27 rings
6 10 15 16 18 19 22 rings
6 6 14 17 20 21 24 rings

> <PUBCHEM_HEAVY_ATOM_COUNT>
27

> <PUBCHEM_ATOM_DEF_STEREO_COUNT>
1

> <PUBCHEM_ATOM_UDEF_STEREO_COUNT>
0

> <PUBCHEM_BOND_DEF_STEREO_COUNT>
0

> <PUBCHEM_BOND_UDEF_STEREO_COUNT>
0

> <PUBCHEM_ISOTOPIC_ATOM_COUNT>
0

> <PUBCHEM_COMPONENT_COUNT>
1

> <PUBCHEM_CACTVS_TAUTO_COUNT>
11

> <PUBCHEM_CONFORMER_ID>
02A8299700000001

> <PUBCHEM_MMFF94_ENERGY>
77.7277

> <PUBCHEM_FEATURE_SELFOVERLAP>
55.822

> <PUBCHEM_SHAPE_FINGERPRINT>
10165383 225 17842855574439390507
10616163 171 18263080066858848145
10670039 82 18264492969576256452
10764073 3 17479131356162967402
11513181 2 18272933812836486327
12100795 323 18334288739188737133
12107698 1 18187639240955500018
12156800 1 13340994283684956036
12422481 6 18195498490879921090
12633257 1 17970047981557418641
12788726 201 18117547630170039625
12978246 48 18263922314050709000
13122387 1 17977657615787020933
13134695 92 17130131001997220682
13402501 40 17905886981319516877
14251751 93 18264768938225551748
14466204 15 18191860137541425362
14713325 29 17902805389903894946
151778 21 18339651027332687841
15210252 30 17831874447217883348
15961568 22 18191025818668697535
17093844 170 18051682253486049680
17921350 177 17606939725461823764
20764821 26 18336827498456931341
21860390 5 17913199867304590894
23536364 44 17914926208641334556
23558518 356 18335696135800106803
23559900 14 18412822456687293911
25019877 29 16624355992338314942
350125 39 18411429401304034611
4280585 95 18050005498522865854
46194498 28 18340498797846963143
469060 322 17905346356917298171
5081480 168 17699595570133644806
508706 21 18337664231337798231
5252454 2 17988367073837156795
53794403 172 18335140830894189253
54672768 99 18340200787256523976
57527585 21 18268413789454473341
6287921 2 18337123318782373701
7808743 9 18116163168446802567
9862522 239 18125701608143286538

> <PUBCHEM_SHAPE_MULTIPOLES>
532.82
8.54
5.68
1.59
3.19
0.39
-0.9
4.83
-0.57
0.48
2.44
-1.36
0
1.18

> <PUBCHEM_SHAPE_SELFOVERLAP>
1164.315

> <PUBCHEM_SHAPE_VOLUME>
290.9

> <PUBCHEM_COORDINATE_TYPE>
2
5
10

$$$$
