10360971
  -OEChem-10052120443D

 46 49  0     0  0  0  0  0  0999 V2000
   -4.5584    2.2737   -0.6596 O   0  0  0  0  0  0  0  0  0  0  0  0
   -4.5520   -2.3440   -0.5747 O   0  0  0  0  0  0  0  0  0  0  0  0
    0.4838    1.4236    1.1075 N   0  0  0  0  0  0  0  0  0  0  0  0
    0.4880   -1.4171    1.1574 N   0  0  0  0  0  0  0  0  0  0  0  0
   -4.9380   -0.0380   -0.7499 N   0  0  0  0  0  0  0  0  0  0  0  0
   -0.6692    0.6998    0.7191 C   0  0  0  0  0  0  0  0  0  0  0  0
   -0.6670   -0.7102    0.7439 C   0  0  0  0  0  0  0  0  0  0  0  0
   -2.9069    0.6717   -0.0575 C   0  0  0  0  0  0  0  0  0  0  0  0
   -2.9048   -0.7165   -0.0331 C   0  0  0  0  0  0  0  0  0  0  0  0
   -1.8026    1.4103    0.3134 C   0  0  0  0  0  0  0  0  0  0  0  0
   -1.7982   -1.4381    0.3635 C   0  0  0  0  0  0  0  0  0  0  0  0
   -4.2219    1.1133   -0.5213 C   0  0  0  0  0  0  0  0  0  0  0  0
   -4.2184   -1.1783   -0.4807 C   0  0  0  0  0  0  0  0  0  0  0  0
    1.5448    1.8360    0.2584 C   0  0  0  0  0  0  0  0  0  0  0  0
    1.5500   -1.8562    0.3231 C   0  0  0  0  0  0  0  0  0  0  0  0
    0.4926    2.0322    2.4451 C   0  0  0  0  0  0  0  0  0  0  0  0
    0.7621   -1.4984    2.5988 C   0  0  0  0  0  0  0  0  0  0  0  0
    1.2874    2.1141   -1.0790 C   0  0  0  0  0  0  0  0  0  0  0  0
    1.2932   -2.1818   -1.0037 C   0  0  0  0  0  0  0  0  0  0  0  0
    2.8303    1.9568    0.7736 C   0  0  0  0  0  0  0  0  0  0  0  0
    2.8357   -1.9564    0.8422 C   0  0  0  0  0  0  0  0  0  0  0  0
    2.3299    2.5185   -1.9130 C   0  0  0  0  0  0  0  0  0  0  0  0
    2.3364   -2.6136   -1.8228 C   0  0  0  0  0  0  0  0  0  0  0  0
    3.8726    2.3613   -0.0605 C   0  0  0  0  0  0  0  0  0  0  0  0
    3.8789   -2.3882    0.0230 C   0  0  0  0  0  0  0  0  0  0  0  0
    3.6224    2.6421   -1.4037 C   0  0  0  0  0  0  0  0  0  0  0  0
    3.6292   -2.7169   -1.3095 C   0  0  0  0  0  0  0  0  0  0  0  0
   -1.8181    2.4946    0.2911 H   0  0  0  0  0  0  0  0  0  0  0  0
   -1.8096   -2.5225    0.3809 H   0  0  0  0  0  0  0  0  0  0  0  0
   -5.8960   -0.0454   -1.0821 H   0  0  0  0  0  0  0  0  0  0  0  0
    0.5849    3.1227    2.3796 H   0  0  0  0  0  0  0  0  0  0  0  0
    1.3025    1.6385    3.0669 H   0  0  0  0  0  0  0  0  0  0  0  0
   -0.4394    1.8214    2.9841 H   0  0  0  0  0  0  0  0  0  0  0  0
    1.4586   -0.7212    2.9289 H   0  0  0  0  0  0  0  0  0  0  0  0
    1.1442   -2.4866    2.8826 H   0  0  0  0  0  0  0  0  0  0  0  0
   -0.1631   -1.3616    3.1732 H   0  0  0  0  0  0  0  0  0  0  0  0
    0.2929    2.0318   -1.5060 H   0  0  0  0  0  0  0  0  0  0  0  0
    0.2985   -2.1164   -1.4335 H   0  0  0  0  0  0  0  0  0  0  0  0
    3.0674    1.7235    1.8067 H   0  0  0  0  0  0  0  0  0  0  0  0
    3.0962   -1.6960    1.8624 H   0  0  0  0  0  0  0  0  0  0  0  0
    2.1353    2.7374   -2.9588 H   0  0  0  0  0  0  0  0  0  0  0  0
    2.1423   -2.8699   -2.8603 H   0  0  0  0  0  0  0  0  0  0  0  0
    4.8805    2.4517    0.3341 H   0  0  0  0  0  0  0  0  0  0  0  0
    4.8870   -2.4638    0.4203 H   0  0  0  0  0  0  0  0  0  0  0  0
    4.4343    2.9556   -2.0533 H   0  0  0  0  0  0  0  0  0  0  0  0
    4.4417   -3.0517   -1.9476 H   0  0  0  0  0  0  0  0  0  0  0  0
  1 12  2  0  0  0  0
  2 13  2  0  0  0  0
  3  6  1  0  0  0  0
  3 14  1  0  0  0  0
  3 16  1  0  0  0  0
  4  7  1  0  0  0  0
  4 15  1  0  0  0  0
  4 17  1  0  0  0  0
  5 12  1  0  0  0  0
  5 13  1  0  0  0  0
  5 30  1  0  0  0  0
  6  7  2  0  0  0  0
  6 10  1  0  0  0  0
  7 11  1  0  0  0  0
  8  9  1  0  0  0  0
  8 10  2  0  0  0  0
  8 12  1  0  0  0  0
  9 11  2  0  0  0  0
  9 13  1  0  0  0  0
 10 28  1  0  0  0  0
 11 29  1  0  0  0  0
 14 18  2  0  0  0  0
 14 20  1  0  0  0  0
 15 19  2  0  0  0  0
 15 21  1  0  0  0  0
 16 31  1  0  0  0  0
 16 32  1  0  0  0  0
 16 33  1  0  0  0  0
 17 34  1  0  0  0  0
 17 35  1  0  0  0  0
 17 36  1  0  0  0  0
 18 22  1  0  0  0  0
 18 37  1  0  0  0  0
 19 23  1  0  0  0  0
 19 38  1  0  0  0  0
 20 24  2  0  0  0  0
 20 39  1  0  0  0  0
 21 25  2  0  0  0  0
 21 40  1  0  0  0  0
 22 26  2  0  0  0  0
 22 41  1  0  0  0  0
 23 27  2  0  0  0  0
 23 42  1  0  0  0  0
 24 26  1  0  0  0  0
 24 43  1  0  0  0  0
 25 27  1  0  0  0  0
 25 44  1  0  0  0  0
 26 45  1  0  0  0  0
 27 46  1  0  0  0  0
M  END
> <PUBCHEM_COMPOUND_CID>
10360971

> <PUBCHEM_CONFORMER_RMSD>
0.8

> <PUBCHEM_CONFORMER_DIVERSEORDER>
1
2
3

> <PUBCHEM_MMFF94_PARTIAL_CHARGES>
40
1 -0.57
10 -0.15
11 -0.15
12 0.54
13 0.54
14 0.1
15 0.1
16 0.37
17 0.37
18 -0.15
19 -0.15
2 -0.57
20 -0.15
21 -0.15
22 -0.15
23 -0.15
24 -0.15
25 -0.15
26 -0.15
27 -0.15
28 0.15
29 0.15
3 -0.57
30 0.37
37 0.15
38 0.15
39 0.15
4 -0.57
40 0.15
41 0.15
42 0.15
43 0.15
44 0.15
45 0.15
46 0.15
5 -0.49
6 0.1
7 0.1
8 0.09
9 0.09

> <PUBCHEM_EFFECTIVE_ROTOR_COUNT>
4.2

> <PUBCHEM_PHARMACOPHORE_FEATURES>
9
1 1 acceptor
1 2 acceptor
1 3 cation
1 4 cation
1 5 donor
5 5 8 9 12 13 rings
6 14 18 20 22 24 26 rings
6 15 19 21 23 25 27 rings
6 6 7 8 9 10 11 rings

> <PUBCHEM_HEAVY_ATOM_COUNT>
27

> <PUBCHEM_ATOM_DEF_STEREO_COUNT>
0

> <PUBCHEM_ATOM_UDEF_STEREO_COUNT>
0

> <PUBCHEM_BOND_DEF_STEREO_COUNT>
0

> <PUBCHEM_BOND_UDEF_STEREO_COUNT>
0

> <PUBCHEM_ISOTOPIC_ATOM_COUNT>
0

> <PUBCHEM_COMPONENT_COUNT>
1

> <PUBCHEM_CACTVS_TAUTO_COUNT>
2

> <PUBCHEM_CONFORMER_ID>
009E188B00000001

> <PUBCHEM_MMFF94_ENERGY>
134.3279

> <PUBCHEM_FEATURE_SELFOVERLAP>
45.767

> <PUBCHEM_SHAPE_FINGERPRINT>
10190108 129 17478059710172906367
10756046 5 18410575080795392605
107951 10 17461446003745403450
11370993 70 18120096332214443764
11578080 2 17099227178872166144
11963148 33 17904754832447521659
12422481 6 18194088933889315136
13149001 5 18042991829338659458
133893 2 18191615032521252616
140371 6 17985839124684992247
14181834 199 18409733937172821432
14713325 29 17681572650382608768
14863182 85 18201712994618671810
15163728 17 17315095452300266932
15439362 3 18187086161285629404
15475509 8 17623579648827253733
15664445 248 18193558857151833798
1601671 61 17688026410508787809
167882 2 18334303093412149092
17492 54 18189357718444124990
1813 80 18196094330754209306
20567600 347 18265050426023516406
20600515 1 17908114626057794842
20691752 17 17313099735510902237
20905425 154 18341898501871128236
21344244 246 18341058514291261278
22182313 1 17823719609745015147
22393880 68 18342749541130050364
23366157 5 18040708156356119939
23419403 2 17682725892188641906
23557571 272 17770210558056782170
23559900 14 18200021842170770243
23566358 2 18409726287962778407
238 59 18196671776675617126
25265897 201 16889530696451043340
26353 1 18048894999988484414
2818148 4 18059311919532350379
3298306 158 18268152139883250540
4280585 95 18193835942962118206
44802255 64 17396165868327950164
460360 51 18270412602799011505
46194498 28 18409165489883002831
463206 1 18058449970613911102
474 4 17749663090830665553
59755656 215 18336263560639556007
6443956 14 18340204086123885448
81228 2 17764322643161830866
9709674 26 18335983155458212331

> <PUBCHEM_SHAPE_MULTIPOLES>
528.97
8.39
4.03
1.84
8.48
0.05
0.65
0.27
-3.69
-4.23
-1.11
-1.21
-0.12
-0.09

> <PUBCHEM_SHAPE_SELFOVERLAP>
1176.532

> <PUBCHEM_SHAPE_VOLUME>
284.2

> <PUBCHEM_COORDINATE_TYPE>
2
5
10

$$$$
