49830369
  -OEChem-10052115183D

 48 51  0     0  0  0  0  0  0999 V2000
   -6.8045   -2.3500    0.5195 S   0  0  0  0  0  0  0  0  0  0  0  0
   -3.5737    1.0535    1.4628 O   0  0  0  0  0  0  0  0  0  0  0  0
    3.9689   -1.0163   -0.5351 O   0  0  0  0  0  0  0  0  0  0  0  0
   -2.5141   -0.6845    0.2953 N   0  0  0  0  0  0  0  0  0  0  0  0
    2.9000    0.7119    0.6310 N   0  0  0  0  0  0  0  0  0  0  0  0
    5.1999    0.7285    0.4183 N   0  0  0  0  0  0  0  0  0  0  0  0
   -8.2692   -0.5903   -0.8430 N   0  0  0  0  0  0  0  0  0  0  0  0
   -7.3211    1.5740   -1.3862 N   0  0  0  0  0  0  0  0  0  0  0  0
   -5.1238    2.2094   -0.7543 N   0  0  0  0  0  0  0  0  0  0  0  0
   -4.9211   -0.6040    0.5416 C   0  0  0  0  0  0  0  0  0  0  0  0
   -6.0034    0.0062   -0.1672 C   0  0  0  0  0  0  0  0  0  0  0  0
   -1.1449   -0.3320    0.3813 C   0  0  0  0  0  0  0  0  0  0  0  0
   -7.0914   -0.8537   -0.2443 C   0  0  0  0  0  0  0  0  0  0  0  0
   -3.6357   -0.0113    0.8151 C   0  0  0  0  0  0  0  0  0  0  0  0
    1.5516    0.3635    0.5476 C   0  0  0  0  0  0  0  0  0  0  0  0
   -5.2221   -1.8795    0.9677 C   0  0  0  0  0  0  0  0  0  0  0  0
   -6.1612    1.2574   -0.7719 C   0  0  0  0  0  0  0  0  0  0  0  0
   -0.7640    0.8276    1.0568 C   0  0  0  0  0  0  0  0  0  0  0  0
   -0.1774   -1.1438   -0.2108 C   0  0  0  0  0  0  0  0  0  0  0  0
    0.5841    1.1754    1.1399 C   0  0  0  0  0  0  0  0  0  0  0  0
    1.1708   -0.7960   -0.1278 C   0  0  0  0  0  0  0  0  0  0  0  0
    6.5314    0.3890    0.0806 C   0  0  0  0  0  0  0  0  0  0  0  0
    9.1561   -0.2815   -0.5854 C   0  0  0  0  0  0  0  0  0  0  0  0
    4.0234    0.0301    0.1030 C   0  0  0  0  0  0  0  0  0  0  0  0
    7.5845    1.2101    0.4834 C   0  0  0  0  0  0  0  0  0  0  0  0
    6.7905   -0.7673   -0.6553 C   0  0  0  0  0  0  0  0  0  0  0  0
    8.8968    0.8749    0.1503 C   0  0  0  0  0  0  0  0  0  0  0  0
    8.1028   -1.1025   -0.9884 C   0  0  0  0  0  0  0  0  0  0  0  0
   -8.2931    0.6409   -1.3839 C   0  0  0  0  0  0  0  0  0  0  0  0
   10.5597   -0.6399   -0.9407 C   0  0  0  0  0  0  0  0  0  0  0  0
   -2.6972   -1.5412   -0.2237 H   0  0  0  0  0  0  0  0  0  0  0  0
   -4.5944   -2.5631    1.5232 H   0  0  0  0  0  0  0  0  0  0  0  0
   -1.4536    1.5053    1.5394 H   0  0  0  0  0  0  0  0  0  0  0  0
   -0.4621   -2.0498   -0.7400 H   0  0  0  0  0  0  0  0  0  0  0  0
    0.8680    2.0818    1.6691 H   0  0  0  0  0  0  0  0  0  0  0  0
    1.8575   -1.4757   -0.6116 H   0  0  0  0  0  0  0  0  0  0  0  0
    3.0988    1.5701    1.1392 H   0  0  0  0  0  0  0  0  0  0  0  0
    5.0922    1.5852    0.9555 H   0  0  0  0  0  0  0  0  0  0  0  0
    7.3963    2.1137    1.0576 H   0  0  0  0  0  0  0  0  0  0  0  0
    6.0321   -1.4537   -1.0034 H   0  0  0  0  0  0  0  0  0  0  0  0
    9.7091    1.5215    0.4716 H   0  0  0  0  0  0  0  0  0  0  0  0
    8.2936   -2.0068   -1.5605 H   0  0  0  0  0  0  0  0  0  0  0  0
   -9.2144    0.9195   -1.8835 H   0  0  0  0  0  0  0  0  0  0  0  0
   -4.2330    2.0249   -0.3202 H   0  0  0  0  0  0  0  0  0  0  0  0
   -5.2826    3.1009   -1.2051 H   0  0  0  0  0  0  0  0  0  0  0  0
   10.9979   -1.2646   -0.1561 H   0  0  0  0  0  0  0  0  0  0  0  0
   10.5999   -1.1872   -1.8887 H   0  0  0  0  0  0  0  0  0  0  0  0
   11.1777    0.2563   -1.0621 H   0  0  0  0  0  0  0  0  0  0  0  0
  1 13  1  0  0  0  0
  1 16  1  0  0  0  0
  2 14  2  0  0  0  0
  3 24  2  0  0  0  0
  4 12  1  0  0  0  0
  4 14  1  0  0  0  0
  4 31  1  0  0  0  0
  5 15  1  0  0  0  0
  5 24  1  0  0  0  0
  5 37  1  0  0  0  0
  6 22  1  0  0  0  0
  6 24  1  0  0  0  0
  6 38  1  0  0  0  0
  7 13  2  0  0  0  0
  7 29  1  0  0  0  0
  8 17  1  0  0  0  0
  8 29  2  0  0  0  0
  9 17  1  0  0  0  0
  9 44  1  0  0  0  0
  9 45  1  0  0  0  0
 10 11  1  0  0  0  0
 10 14  1  0  0  0  0
 10 16  2  0  0  0  0
 11 13  1  0  0  0  0
 11 17  2  0  0  0  0
 12 18  2  0  0  0  0
 12 19  1  0  0  0  0
 15 20  2  0  0  0  0
 15 21  1  0  0  0  0
 16 32  1  0  0  0  0
 18 20  1  0  0  0  0
 18 33  1  0  0  0  0
 19 21  2  0  0  0  0
 19 34  1  0  0  0  0
 20 35  1  0  0  0  0
 21 36  1  0  0  0  0
 22 25  2  0  0  0  0
 22 26  1  0  0  0  0
 23 27  2  0  0  0  0
 23 28  1  0  0  0  0
 23 30  1  0  0  0  0
 25 27  1  0  0  0  0
 25 39  1  0  0  0  0
 26 28  2  0  0  0  0
 26 40  1  0  0  0  0
 27 41  1  0  0  0  0
 28 42  1  0  0  0  0
 29 43  1  0  0  0  0
 30 46  1  0  0  0  0
 30 47  1  0  0  0  0
 30 48  1  0  0  0  0
M  END
> <PUBCHEM_COMPOUND_CID>
49830369

> <PUBCHEM_CONFORMER_RMSD>
0.8

> <PUBCHEM_CONFORMER_DIVERSEORDER>
1
16
26
20
36
34
8
31
13
22
3
11
25
23
35
12
24
30
2
29
18
7
19
6
38
4
17
33
37
14
5
32
15
9
21
27
10
39
28

> <PUBCHEM_MMFF94_PARTIAL_CHARGES>
44
1 -0.08
10 -0.09
12 0.12
13 0.3
14 0.72
15 0.12
16 -0.11
17 0.41
18 -0.15
19 -0.15
2 -0.57
20 -0.15
21 -0.15
22 0.12
23 -0.14
24 0.69
25 -0.15
26 -0.15
27 -0.15
28 -0.15
29 0.47
3 -0.57
30 0.14
31 0.37
32 0.15
33 0.15
34 0.15
35 0.15
36 0.15
37 0.37
38 0.37
39 0.15
4 -0.55
40 0.15
41 0.15
42 0.15
43 0.15
44 0.4
45 0.4
5 -0.55
6 -0.55
7 -0.57
8 -0.62
9 -0.9

> <PUBCHEM_EFFECTIVE_ROTOR_COUNT>
7

> <PUBCHEM_PHARMACOPHORE_FEATURES>
13
1 2 acceptor
1 3 acceptor
1 4 donor
1 5 donor
1 6 donor
1 7 acceptor
1 9 cation
1 9 donor
3 7 8 29 cation
5 1 10 11 13 16 rings
6 12 15 18 19 20 21 rings
6 22 23 25 26 27 28 rings
6 7 8 11 13 17 29 rings

> <PUBCHEM_HEAVY_ATOM_COUNT>
30

> <PUBCHEM_ATOM_DEF_STEREO_COUNT>
0

> <PUBCHEM_ATOM_UDEF_STEREO_COUNT>
0

> <PUBCHEM_BOND_DEF_STEREO_COUNT>
0

> <PUBCHEM_BOND_UDEF_STEREO_COUNT>
0

> <PUBCHEM_ISOTOPIC_ATOM_COUNT>
0

> <PUBCHEM_COMPONENT_COUNT>
1

> <PUBCHEM_CACTVS_TAUTO_COUNT>
24

> <PUBCHEM_CONFORMER_ID>
02F859E100000001

> <PUBCHEM_MMFF94_ENERGY>
97.3892

> <PUBCHEM_FEATURE_SELFOVERLAP>
66.102

> <PUBCHEM_SHAPE_FINGERPRINT>
10050765 1 17913501142703040634
10299344 5 13902191490990595764
106641 1 11312054349216509986
10666366 153 18410294714342400004
10669705 176 18410293605396682230
11135926 11 18131078121456675339
11181472 205 17023461942011553428
11315181 36 18413673522222337411
11638347 137 12463579461588112780
11672396 167 18199470953615008342
12082328 90 18060139808469588037
12089408 11 15267348427236792634
12758862 11 18409447028804331137
12838862 33 18130495393400070818
13885169 127 18333450945344614306
13974486 27 18114746052626058469
14150022 121 10519718781876560995
14251764 18 16660360381342289280
14251764 46 17346883351123822430
14428016 248 15574437622301094718
14617042 71 13407375010107466678
150020 25 18411133641113357000
15131766 46 17609505174580573004
15183329 4 18186516588460475969
15198563 99 18340773637506169348
15247644 1 15626224619847947956
15328684 2 16661187166890327024
15461852 350 18187087277507166399
15510794 2 18413109471940214582
1577012 14 17240194426471274217
15849732 13 18412263956467704164
16728433 110 16988839502295870416
1754908 1 11959729361386133254
1754911 235 17675926508609681206
19315958 150 12540688207089999096
195137 175 16153708721518410540
21150785 3 17489867137360536868
21267235 1 18059863874517199576
21360443 89 10087626110773142669
21792961 116 18272653432712185131
232437 2 17775568653932590670
23528940 14 12751227122073166309
23576562 1 17969504994611736045
249057 3 17821732770827254622
3092352 35 16081087090868772066
335352 9 17988928886373051268
3711267 37 13262402137719829774
395649 100 18343586205466222001
44802255 64 18113890547586721247
4625314 4 18335985363129073834
5219985 9 15841834456197756288
54039377 194 17060331955783447605
5758199 1 15502372326833053464
6081469 158 18412263922693696956
6201320 215 16878770609410551940
6691757 9 16153717518244735113
67123 10 18343022207756421198
68570916 9 10879406436117784816
9962374 69 16558739144405639344

> <PUBCHEM_SHAPE_MULTIPOLES>
579.61
35.6
1.68
1.14
45.47
0.13
0.05
2.26
12.76
-2.77
0.01
-1.03
-0.2
2.74

> <PUBCHEM_SHAPE_SELFOVERLAP>
1262.012

> <PUBCHEM_SHAPE_VOLUME>
314.7

> <PUBCHEM_COORDINATE_TYPE>
2
5
10

$$$$
