49830309
  -OEChem-10062121533D

 53 56  0     0  0  0  0  0  0999 V2000
    3.5688   -4.8288    0.7312 Cl  0  0  0  0  0  0  0  0  0  0  0  0
   -6.0175   -0.2594    1.3173 O   0  0  0  0  0  0  0  0  0  0  0  0
   -0.2371   -2.1285   -0.7902 N   0  0  0  0  0  0  0  0  0  0  0  0
   -4.5179   -0.1141   -0.4492 N   0  0  0  0  0  0  0  0  0  0  0  0
   -6.1169    1.5137   -0.1761 N   0  0  0  0  0  0  0  0  0  0  0  0
    1.6357   -0.9240   -0.1375 N   0  0  0  0  0  0  0  0  0  0  0  0
    1.6066   -3.3323   -0.0591 N   0  0  0  0  0  0  0  0  0  0  0  0
    4.8886    1.8351    1.4142 N   0  0  0  0  0  0  0  0  0  0  0  0
    4.3567    3.7579    0.0636 N   0  0  0  0  0  0  0  0  0  0  0  0
   -0.9722   -0.9196   -1.1070 C   0  0  0  0  0  0  0  0  0  0  0  0
   -3.7798   -1.3231   -0.1621 C   0  0  0  0  0  0  0  0  0  0  0  0
   -2.1054   -1.2291   -2.0883 C   0  0  0  0  0  0  0  0  0  0  0  0
   -1.4859   -0.2705    0.1799 C   0  0  0  0  0  0  0  0  0  0  0  0
   -3.2733   -1.9838   -1.4468 C   0  0  0  0  0  0  0  0  0  0  0  0
   -2.6388   -1.0476    0.8197 C   0  0  0  0  0  0  0  0  0  0  0  0
    1.0578   -2.1282   -0.3090 C   0  0  0  0  0  0  0  0  0  0  0  0
   -5.5898    0.3250    0.3227 C   0  0  0  0  0  0  0  0  0  0  0  0
    2.8986   -0.9607    0.3356 C   0  0  0  0  0  0  0  0  0  0  0  0
   -7.2371    2.1899    0.4343 C   0  0  0  0  0  0  0  0  0  0  0  0
    3.5323    0.3126    0.5234 C   0  0  0  0  0  0  0  0  0  0  0  0
    2.8704   -3.2953    0.4119 C   0  0  0  0  0  0  0  0  0  0  0  0
    3.5730   -2.1279    0.6309 C   0  0  0  0  0  0  0  0  0  0  0  0
    3.3437    1.5370   -0.1708 C   0  0  0  0  0  0  0  0  0  0  0  0
    4.4888    0.5263    1.4925 C   0  0  0  0  0  0  0  0  0  0  0  0
    4.2038    2.4653    0.4086 C   0  0  0  0  0  0  0  0  0  0  0  0
   -6.8066    2.9982    1.6408 C   0  0  0  0  0  0  0  0  0  0  0  0
    2.5387    1.9773   -1.2340 C   0  0  0  0  0  0  0  0  0  0  0  0
    2.6572    3.3077   -1.6321 C   0  0  0  0  0  0  0  0  0  0  0  0
    3.5576    4.1270   -0.9644 C   0  0  0  0  0  0  0  0  0  0  0  0
   -0.3017   -0.2158   -1.6169 H   0  0  0  0  0  0  0  0  0  0  0  0
   -4.4792   -2.0174    0.3206 H   0  0  0  0  0  0  0  0  0  0  0  0
   -2.4800   -0.2850   -2.5034 H   0  0  0  0  0  0  0  0  0  0  0  0
   -1.7251   -1.8107   -2.9373 H   0  0  0  0  0  0  0  0  0  0  0  0
   -0.6856   -0.1506    0.9189 H   0  0  0  0  0  0  0  0  0  0  0  0
   -1.8351    0.7432   -0.0560 H   0  0  0  0  0  0  0  0  0  0  0  0
   -4.0888   -2.0715   -2.1752 H   0  0  0  0  0  0  0  0  0  0  0  0
   -2.9520   -3.0069   -1.2154 H   0  0  0  0  0  0  0  0  0  0  0  0
   -2.2559   -2.0038    1.1985 H   0  0  0  0  0  0  0  0  0  0  0  0
   -3.0072   -0.4923    1.6908 H   0  0  0  0  0  0  0  0  0  0  0  0
   -0.6914   -3.0294   -0.8829 H   0  0  0  0  0  0  0  0  0  0  0  0
   -4.1994    0.4828   -1.2061 H   0  0  0  0  0  0  0  0  0  0  0  0
   -5.6919    1.9293   -0.9992 H   0  0  0  0  0  0  0  0  0  0  0  0
   -7.6798    2.8432   -0.3239 H   0  0  0  0  0  0  0  0  0  0  0  0
   -7.9838    1.4444    0.7275 H   0  0  0  0  0  0  0  0  0  0  0  0
    4.5923   -2.1525    0.9978 H   0  0  0  0  0  0  0  0  0  0  0  0
    4.9242   -0.1191    2.2437 H   0  0  0  0  0  0  0  0  0  0  0  0
   -7.6637    3.5227    2.0740 H   0  0  0  0  0  0  0  0  0  0  0  0
   -6.0530    3.7431    1.3639 H   0  0  0  0  0  0  0  0  0  0  0  0
   -6.3718    2.3584    2.4155 H   0  0  0  0  0  0  0  0  0  0  0  0
    5.5808    2.2702    2.0081 H   0  0  0  0  0  0  0  0  0  0  0  0
    1.8457    1.3157   -1.7427 H   0  0  0  0  0  0  0  0  0  0  0  0
    2.0574    3.6943   -2.4491 H   0  0  0  0  0  0  0  0  0  0  0  0
    3.6628    5.1670   -1.2620 H   0  0  0  0  0  0  0  0  0  0  0  0
  1 21  1  0  0  0  0
  2 17  2  0  0  0  0
  3 10  1  0  0  0  0
  3 16  1  0  0  0  0
  3 40  1  0  0  0  0
  4 11  1  0  0  0  0
  4 17  1  0  0  0  0
  4 41  1  0  0  0  0
  5 17  1  0  0  0  0
  5 19  1  0  0  0  0
  5 42  1  0  0  0  0
  6 16  2  0  0  0  0
  6 18  1  0  0  0  0
  7 16  1  0  0  0  0
  7 21  2  0  0  0  0
  8 24  1  0  0  0  0
  8 25  1  0  0  0  0
  8 50  1  0  0  0  0
  9 25  1  0  0  0  0
  9 29  2  0  0  0  0
 10 12  1  0  0  0  0
 10 13  1  0  0  0  0
 10 30  1  0  0  0  0
 11 14  1  0  0  0  0
 11 15  1  0  0  0  0
 11 31  1  0  0  0  0
 12 14  1  0  0  0  0
 12 32  1  0  0  0  0
 12 33  1  0  0  0  0
 13 15  1  0  0  0  0
 13 34  1  0  0  0  0
 13 35  1  0  0  0  0
 14 36  1  0  0  0  0
 14 37  1  0  0  0  0
 15 38  1  0  0  0  0
 15 39  1  0  0  0  0
 18 20  1  0  0  0  0
 18 22  2  0  0  0  0
 19 26  1  0  0  0  0
 19 43  1  0  0  0  0
 19 44  1  0  0  0  0
 20 23  1  0  0  0  0
 20 24  2  0  0  0  0
 21 22  1  0  0  0  0
 22 45  1  0  0  0  0
 23 25  2  0  0  0  0
 23 27  1  0  0  0  0
 24 46  1  0  0  0  0
 26 47  1  0  0  0  0
 26 48  1  0  0  0  0
 26 49  1  0  0  0  0
 27 28  2  0  0  0  0
 27 51  1  0  0  0  0
 28 29  1  0  0  0  0
 28 52  1  0  0  0  0
 29 53  1  0  0  0  0
M  END
> <PUBCHEM_COMPOUND_CID>
49830309

> <PUBCHEM_CONFORMER_RMSD>
1.2

> <PUBCHEM_CONFORMER_DIVERSEORDER>
1
51
16
7
66
28
35
37
39
29
40
53
54
42
26
59
21
13
10
19
38
45
31
18
58
56
50
68
49
12
41
52
47
5
64
4
32
61
70
24
44
69
20
36
25
8
30
14
67
63
2
33
60
22
34
23
46
9
48
55
6
17
11
57
27
65
62
71
15
3
43

> <PUBCHEM_MMFF94_PARTIAL_CHARGES>
32
1 -0.18
10 0.37
11 0.3
16 0.72
17 0.69
18 0.36
19 0.3
2 -0.57
20 -0.05
21 0.49
22 -0.15
24 -0.3
25 0.11
27 -0.15
28 -0.15
29 0.16
3 -0.87
4 -0.73
40 0.4
41 0.37
42 0.37
45 0.15
46 0.15
5 -0.73
50 0.27
51 0.15
52 0.15
53 0.15
6 -0.62
7 -0.62
8 0.03
9 -0.57

> <PUBCHEM_EFFECTIVE_ROTOR_COUNT>
8.2

> <PUBCHEM_PHARMACOPHORE_FEATURES>
13
1 2 acceptor
1 3 donor
1 4 donor
1 5 donor
1 7 acceptor
1 8 cation
1 8 donor
1 9 acceptor
4 3 6 7 16 cation
5 8 20 23 24 25 rings
6 10 11 12 13 14 15 rings
6 6 7 16 18 21 22 rings
6 9 23 25 27 28 29 rings

> <PUBCHEM_HEAVY_ATOM_COUNT>
29

> <PUBCHEM_ATOM_DEF_STEREO_COUNT>
0

> <PUBCHEM_ATOM_UDEF_STEREO_COUNT>
0

> <PUBCHEM_BOND_DEF_STEREO_COUNT>
0

> <PUBCHEM_BOND_UDEF_STEREO_COUNT>
0

> <PUBCHEM_ISOTOPIC_ATOM_COUNT>
0

> <PUBCHEM_COMPONENT_COUNT>
1

> <PUBCHEM_CACTVS_TAUTO_COUNT>
48

> <PUBCHEM_CONFORMER_ID>
02F859A500000001

> <PUBCHEM_MMFF94_ENERGY>
51.4751

> <PUBCHEM_FEATURE_SELFOVERLAP>
66.136

> <PUBCHEM_SHAPE_FINGERPRINT>
100830 2 18340495572733147373
10674148 151 18266474273051721492
10763959 59 18057051215914109759
10917259 69 18120380019870510772
10937287 8 18048878790982414326
12061779 8 17058683744740624889
12107183 9 18197775493198370731
12422481 6 18113617868265189725
12633257 1 17095796741137401882
13785724 45 18051979121393908294
13878862 14 18267001896228407621
14114211 80 17899427660039741716
14251764 75 17974013039573163924
14790565 3 18194685005955789437
15348495 7 18187374190777819483
15439362 3 18339929346278108172
16992787 43 18409454662164320230
17810953 82 18410576201471075276
20511986 3 17917417761438869801
20715895 44 18411134732024435945
21315764 268 18190460459766319253
22122407 14 18340781347150703473
23559900 14 18335422326876211603
245318 6 18262528116232256973
24771293 8 18199162106827310994
373842 8 18337671889629250485
397830 11 18114756997071691467
4409770 3 16968571894960100966
474 4 18264757934756748710
5104073 3 18334295349602315755
57724786 102 18411979131416645287
6058803 2 18199729471010528831
633830 44 18269836578870410190
68570916 9 18413670198234602683

> <PUBCHEM_SHAPE_MULTIPOLES>
557.94
15.64
5.67
1.48
31.38
0.27
0.26
12.51
-6.66
-8.29
0.19
0.49
0.42
-3.19

> <PUBCHEM_SHAPE_SELFOVERLAP>
1193.813

> <PUBCHEM_SHAPE_VOLUME>
309.2

> <PUBCHEM_COORDINATE_TYPE>
2
5
10

$$$$
