24905294
  -OEChem-10052115143D

 43 46  0     0  0  0  0  0  0999 V2000
    5.3445    1.0228    0.1197 O   0  0  0  0  0  0  0  0  0  0  0  0
    4.0153    0.7313   -2.3036 O   0  0  0  0  0  0  0  0  0  0  0  0
   -2.1989    0.1859    0.0145 N   0  0  0  0  0  0  0  0  0  0  0  0
   -1.0174    0.8304    0.0301 N   0  0  0  0  0  0  0  0  0  0  0  0
   -3.0764   -2.0707    0.0003 N   0  0  0  0  0  0  0  0  0  0  0  0
   -1.2910   -3.7328    0.0199 N   0  0  0  0  0  0  0  0  0  0  0  0
    1.0213   -3.1417    0.0506 N   0  0  0  0  0  0  0  0  0  0  0  0
   -3.4835    0.9839    0.0000 C   0  0  0  0  0  0  0  0  0  0  0  0
   -3.6424    1.9187   -1.2172 C   0  0  0  0  0  0  0  0  0  0  0  0
   -3.6322    1.8850    1.2388 C   0  0  0  0  0  0  0  0  0  0  0  0
   -3.7177    3.3311   -0.6482 C   0  0  0  0  0  0  0  0  0  0  0  0
   -4.3329    3.1340    0.7260 C   0  0  0  0  0  0  0  0  0  0  0  0
   -2.0791   -1.1721    0.0140 C   0  0  0  0  0  0  0  0  0  0  0  0
   -0.7207   -1.4357    0.0303 C   0  0  0  0  0  0  0  0  0  0  0  0
   -0.1211   -0.1624    0.0397 C   0  0  0  0  0  0  0  0  0  0  0  0
    1.2870    0.1439    0.0574 C   0  0  0  0  0  0  0  0  0  0  0  0
   -0.3359   -2.7722    0.0332 C   0  0  0  0  0  0  0  0  0  0  0  0
   -2.5836   -3.3281    0.0045 C   0  0  0  0  0  0  0  0  0  0  0  0
    1.9830    0.2929   -1.1422 C   0  0  0  0  0  0  0  0  0  0  0  0
    1.9541    0.2903    1.2735 C   0  0  0  0  0  0  0  0  0  0  0  0
    3.3462    0.5887   -1.1257 C   0  0  0  0  0  0  0  0  0  0  0  0
    3.3173    0.5857    1.2901 C   0  0  0  0  0  0  0  0  0  0  0  0
    4.0133    0.7350    0.0906 C   0  0  0  0  0  0  0  0  0  0  0  0
    5.9507    1.1561    1.4038 C   0  0  0  0  0  0  0  0  0  0  0  0
   -4.2861    0.2366   -0.0154 H   0  0  0  0  0  0  0  0  0  0  0  0
   -4.5842    1.6835   -1.7282 H   0  0  0  0  0  0  0  0  0  0  0  0
   -2.8379    1.8214   -1.9529 H   0  0  0  0  0  0  0  0  0  0  0  0
   -2.6594    2.1561    1.6655 H   0  0  0  0  0  0  0  0  0  0  0  0
   -4.2082    1.3928    2.0291 H   0  0  0  0  0  0  0  0  0  0  0  0
   -4.3088    4.0013   -1.2788 H   0  0  0  0  0  0  0  0  0  0  0  0
   -2.7092    3.7511   -0.5540 H   0  0  0  0  0  0  0  0  0  0  0  0
   -4.1768    3.9960    1.3806 H   0  0  0  0  0  0  0  0  0  0  0  0
   -5.4114    2.9569    0.6398 H   0  0  0  0  0  0  0  0  0  0  0  0
   -3.3222   -4.1224   -0.0058 H   0  0  0  0  0  0  0  0  0  0  0  0
    1.4648    0.1784   -2.0921 H   0  0  0  0  0  0  0  0  0  0  0  0
    1.4250    0.1762    2.2169 H   0  0  0  0  0  0  0  0  0  0  0  0
    1.7550   -2.4487    0.0603 H   0  0  0  0  0  0  0  0  0  0  0  0
    1.2574   -4.1250    0.0518 H   0  0  0  0  0  0  0  0  0  0  0  0
    3.7695    0.6846    2.2709 H   0  0  0  0  0  0  0  0  0  0  0  0
    3.3943    0.5954   -3.0397 H   0  0  0  0  0  0  0  0  0  0  0  0
    7.0087    1.3851    1.2385 H   0  0  0  0  0  0  0  0  0  0  0  0
    5.9131    0.2176    1.9673 H   0  0  0  0  0  0  0  0  0  0  0  0
    5.5277    1.9966    1.9646 H   0  0  0  0  0  0  0  0  0  0  0  0
  1 23  1  0  0  0  0
  1 24  1  0  0  0  0
  2 21  1  0  0  0  0
  2 40  1  0  0  0  0
  3  4  1  0  0  0  0
  3  8  1  0  0  0  0
  3 13  1  0  0  0  0
  4 15  2  0  0  0  0
  5 13  2  0  0  0  0
  5 18  1  0  0  0  0
  6 17  1  0  0  0  0
  6 18  2  0  0  0  0
  7 17  1  0  0  0  0
  7 37  1  0  0  0  0
  7 38  1  0  0  0  0
  8  9  1  0  0  0  0
  8 10  1  0  0  0  0
  8 25  1  0  0  0  0
  9 11  1  0  0  0  0
  9 26  1  0  0  0  0
  9 27  1  0  0  0  0
 10 12  1  0  0  0  0
 10 28  1  0  0  0  0
 10 29  1  0  0  0  0
 11 12  1  0  0  0  0
 11 30  1  0  0  0  0
 11 31  1  0  0  0  0
 12 32  1  0  0  0  0
 12 33  1  0  0  0  0
 13 14  1  0  0  0  0
 14 15  1  0  0  0  0
 14 17  2  0  0  0  0
 15 16  1  0  0  0  0
 16 19  2  0  0  0  0
 16 20  1  0  0  0  0
 18 34  1  0  0  0  0
 19 21  1  0  0  0  0
 19 35  1  0  0  0  0
 20 22  2  0  0  0  0
 20 36  1  0  0  0  0
 21 23  2  0  0  0  0
 22 23  1  0  0  0  0
 22 39  1  0  0  0  0
 24 41  1  0  0  0  0
 24 42  1  0  0  0  0
 24 43  1  0  0  0  0
M  END
> <PUBCHEM_COMPOUND_CID>
24905294

> <PUBCHEM_CONFORMER_RMSD>
0.8

> <PUBCHEM_CONFORMER_DIVERSEORDER>
1
4
7
6
10
12
8
11
3
5
9
2

> <PUBCHEM_MMFF94_PARTIAL_CHARGES>
26
1 -0.36
13 0.11
15 0.23
16 0.05
17 0.41
18 0.47
19 -0.15
2 -0.53
20 -0.15
21 0.08
22 -0.15
23 0.08
24 0.28
3 0.31
34 0.15
35 0.15
36 0.15
37 0.4
38 0.4
39 0.15
4 -0.71
40 0.45
5 -0.57
6 -0.62
7 -0.9
8 0.26

> <PUBCHEM_EFFECTIVE_ROTOR_COUNT>
4

> <PUBCHEM_PHARMACOPHORE_FEATURES>
11
1 1 acceptor
1 2 donor
1 4 acceptor
1 7 cation
1 7 donor
3 3 5 13 cation
3 5 6 18 cation
5 3 4 13 14 15 rings
5 8 9 10 11 12 rings
6 16 19 20 21 22 23 rings
6 5 6 13 14 17 18 rings

> <PUBCHEM_HEAVY_ATOM_COUNT>
24

> <PUBCHEM_ATOM_DEF_STEREO_COUNT>
0

> <PUBCHEM_ATOM_UDEF_STEREO_COUNT>
0

> <PUBCHEM_BOND_DEF_STEREO_COUNT>
0

> <PUBCHEM_BOND_UDEF_STEREO_COUNT>
0

> <PUBCHEM_ISOTOPIC_ATOM_COUNT>
0

> <PUBCHEM_COMPONENT_COUNT>
1

> <PUBCHEM_CACTVS_TAUTO_COUNT>
15

> <PUBCHEM_CONFORMER_ID>
017C064E00000001

> <PUBCHEM_MMFF94_ENERGY>
69.1372

> <PUBCHEM_FEATURE_SELFOVERLAP>
56.101

> <PUBCHEM_SHAPE_FINGERPRINT>
10165383 225 18267605536665431265
10411042 1 17762334021722607067
105312 117 18411138004615429213
1100329 8 18123470471053999539
11049842 53 18262818284755518414
11582403 64 16625689468087743834
11725454 13 17129262503674759056
11796584 16 18341902866607953614
12107183 9 18191291707725932802
12173636 292 18410009940313731159
12236239 1 17604700218118625242
12390115 104 18342750589360669409
12403259 118 17603872169783222813
12422481 6 17751904845058477272
12500047 106 18412538825700252256
12788726 201 18046077217621467151
13140716 1 18192995916110107195
13583140 156 17916858140733864762
13878862 14 17327171054034522477
13965767 371 18042117661749465892
14178342 30 18336262435558889574
14508225 48 17909814772331133791
14713325 29 18336267933249066595
15021287 119 17240196630428157388
15042514 8 18120377807318053699
15230672 131 18336550401123273838
15842332 3 17677619829367402660
16752209 62 18337383967257366211
16988056 13 16676953905733812645
1741750 31 18411420583593614721
18785283 64 17901676964492920027
19784866 34 18270117882080232913
20510252 161 18270964681973818227
20554085 129 18057295358792464945
21033650 10 18190483699770761924
21065201 7 18341619260862980310
2255824 54 17764025766806793343
22907989 373 18264204897492505447
23557571 272 18201442540459633104
23559900 14 18201167581433185262
283562 15 18339354284058417723
3091708 16 9341585471728851683
458136 41 18122638154200404209
469060 322 18337125544224442369
474 4 18051685552210622729
6327066 14 18261663780029218285
633830 44 17843685465548404021
7808743 9 18408890658915237076
81228 2 18195249051642602227
84936 182 17912076158253380273
9849439 229 18196365919181117153
9862522 239 17895747405458300325
9981440 41 18336264531734948361

> <PUBCHEM_SHAPE_MULTIPOLES>
457.27
10.12
4.05
1.29
9.22
3.21
0.3
-9.76
-1.12
-5.81
-0.13
1.2
-0.74
0.17

> <PUBCHEM_SHAPE_SELFOVERLAP>
1007.029

> <PUBCHEM_SHAPE_VOLUME>
247.1

> <PUBCHEM_COORDINATE_TYPE>
2
5
10

$$$$
