49830521
  -OEChem-10052120443D

 39 42  0     0  0  0  0  0  0999 V2000
   -5.5055   -1.8115    0.3686 O   0  0  0  0  0  0  0  0  0  0  0  0
   -4.6139    0.0989    1.2185 O   0  0  0  0  0  0  0  0  0  0  0  0
    2.7066   -2.3341    0.8489 N   0  0  0  0  0  0  0  0  0  0  0  0
    1.9153    2.4844    0.1230 N   0  0  0  0  0  0  0  0  0  0  0  0
   -2.4555    0.8683   -0.3536 N   0  0  0  0  0  0  0  0  0  0  0  0
    3.7429   -3.1599    0.6274 N   0  0  0  0  0  0  0  0  0  0  0  0
   -0.2564    1.6466   -0.1169 N   0  0  0  0  0  0  0  0  0  0  0  0
    0.1342    4.0025    0.1184 N   0  0  0  0  0  0  0  0  0  0  0  0
   -2.1052    3.1762   -0.1269 N   0  0  0  0  0  0  0  0  0  0  0  0
    2.9360   -1.0352    0.4827 C   0  0  0  0  0  0  0  0  0  0  0  0
    4.2326   -1.0199   -0.0192 C   0  0  0  0  0  0  0  0  0  0  0  0
    2.6856    1.2998    0.0791 C   0  0  0  0  0  0  0  0  0  0  0  0
    2.1313    0.1043    0.5483 C   0  0  0  0  0  0  0  0  0  0  0  0
    4.7754    0.1886   -0.4868 C   0  0  0  0  0  0  0  0  0  0  0  0
    3.9848    1.3433   -0.4298 C   0  0  0  0  0  0  0  0  0  0  0  0
    4.6693   -2.3569    0.0992 C   0  0  0  0  0  0  0  0  0  0  0  0
   -2.2594   -0.5214   -0.4591 C   0  0  0  0  0  0  0  0  0  0  0  0
   -3.2284   -1.4176   -0.0085 C   0  0  0  0  0  0  0  0  0  0  0  0
    0.5320    2.7225    0.0378 C   0  0  0  0  0  0  0  0  0  0  0  0
   -1.5624    1.9498   -0.1918 C   0  0  0  0  0  0  0  0  0  0  0  0
   -1.0768   -0.9987   -1.0242 C   0  0  0  0  0  0  0  0  0  0  0  0
   -3.0150   -2.7912   -0.1228 C   0  0  0  0  0  0  0  0  0  0  0  0
   -0.8632   -2.3725   -1.1385 C   0  0  0  0  0  0  0  0  0  0  0  0
   -1.8323   -3.2686   -0.6879 C   0  0  0  0  0  0  0  0  0  0  0  0
   -4.4749   -0.9509    0.5857 C   0  0  0  0  0  0  0  0  0  0  0  0
   -1.1973    4.1531    0.0285 C   0  0  0  0  0  0  0  0  0  0  0  0
    1.1477    0.0366    0.9953 H   0  0  0  0  0  0  0  0  0  0  0  0
    5.7844    0.2346   -0.8849 H   0  0  0  0  0  0  0  0  0  0  0  0
    4.4023    2.2804   -0.7919 H   0  0  0  0  0  0  0  0  0  0  0  0
    1.8640   -2.7224    1.2541 H   0  0  0  0  0  0  0  0  0  0  0  0
    2.4624    3.3397    0.1024 H   0  0  0  0  0  0  0  0  0  0  0  0
    5.6253   -2.7780   -0.1783 H   0  0  0  0  0  0  0  0  0  0  0  0
   -3.4253    1.1615   -0.2924 H   0  0  0  0  0  0  0  0  0  0  0  0
   -0.3187   -0.3424   -1.4375 H   0  0  0  0  0  0  0  0  0  0  0  0
   -3.7439   -3.5161    0.2302 H   0  0  0  0  0  0  0  0  0  0  0  0
    0.0530   -2.7444   -1.5879 H   0  0  0  0  0  0  0  0  0  0  0  0
   -1.6653   -4.3382   -0.7766 H   0  0  0  0  0  0  0  0  0  0  0  0
   -1.5772    5.1654    0.0873 H   0  0  0  0  0  0  0  0  0  0  0  0
   -6.3404   -1.4905    0.7714 H   0  0  0  0  0  0  0  0  0  0  0  0
  1 25  1  0  0  0  0
  1 39  1  0  0  0  0
  2 25  2  0  0  0  0
  3  6  1  0  0  0  0
  3 10  1  0  0  0  0
  3 30  1  0  0  0  0
  4 12  1  0  0  0  0
  4 19  1  0  0  0  0
  4 31  1  0  0  0  0
  5 17  1  0  0  0  0
  5 20  1  0  0  0  0
  5 33  1  0  0  0  0
  6 16  2  0  0  0  0
  7 19  2  0  0  0  0
  7 20  1  0  0  0  0
  8 19  1  0  0  0  0
  8 26  2  0  0  0  0
  9 20  2  0  0  0  0
  9 26  1  0  0  0  0
 10 11  2  0  0  0  0
 10 13  1  0  0  0  0
 11 14  1  0  0  0  0
 11 16  1  0  0  0  0
 12 13  2  0  0  0  0
 12 15  1  0  0  0  0
 13 27  1  0  0  0  0
 14 15  2  0  0  0  0
 14 28  1  0  0  0  0
 15 29  1  0  0  0  0
 16 32  1  0  0  0  0
 17 18  1  0  0  0  0
 17 21  2  0  0  0  0
 18 22  2  0  0  0  0
 18 25  1  0  0  0  0
 21 23  1  0  0  0  0
 21 34  1  0  0  0  0
 22 24  1  0  0  0  0
 22 35  1  0  0  0  0
 23 24  2  0  0  0  0
 23 36  1  0  0  0  0
 24 37  1  0  0  0  0
 26 38  1  0  0  0  0
M  END
> <PUBCHEM_COMPOUND_CID>
49830521

> <PUBCHEM_CONFORMER_RMSD>
1

> <PUBCHEM_CONFORMER_DIVERSEORDER>
1
83
76
79
108
15
6
13
94
85
47
88
73
109
86
51
95
39
89
62
72
33
74
8
35
54
27
106
103
81
65
91
34
58
14
100
97
21
102
48
28
87
82
71
61
80
43
11
107
46
52
44
78
32
101
38
31
36
12
60
41
63
22
84
20
49
75
99
3
30
57
96
98
70
53
45
59
104
90
56
9
16
66
93
17
42
105
92
18
67
19
25
40
55
37
29
24
77
64
23
7
69
10
50
68
26
2
5
4

> <PUBCHEM_MMFF94_PARTIAL_CHARGES>
38
1 -0.65
10 -0.15
12 0.1
13 -0.15
14 -0.15
15 -0.15
16 0.14
17 0.1
18 0.09
19 0.72
2 -0.57
20 0.72
21 -0.15
22 -0.15
23 -0.15
24 -0.15
25 0.63
26 0.47
27 0.15
28 0.15
29 0.15
3 0.3
30 0.27
31 0.4
32 0.15
33 0.4
34 0.15
35 0.15
36 0.15
37 0.15
38 0.15
39 0.5
4 -0.6
5 -0.6
6 -0.71
7 -0.62
8 -0.62
9 -0.62

> <PUBCHEM_EFFECTIVE_ROTOR_COUNT>
5

> <PUBCHEM_PHARMACOPHORE_FEATURES>
13
1 1 acceptor
1 2 acceptor
1 3 donor
1 4 donor
1 5 donor
1 6 acceptor
3 1 2 25 anion
4 4 7 8 19 cation
4 5 7 9 20 cation
5 3 6 10 11 16 rings
6 10 11 12 13 14 15 rings
6 17 18 21 22 23 24 rings
6 7 8 9 19 20 26 rings

> <PUBCHEM_HEAVY_ATOM_COUNT>
26

> <PUBCHEM_ATOM_DEF_STEREO_COUNT>
0

> <PUBCHEM_ATOM_UDEF_STEREO_COUNT>
0

> <PUBCHEM_BOND_DEF_STEREO_COUNT>
0

> <PUBCHEM_BOND_UDEF_STEREO_COUNT>
0

> <PUBCHEM_ISOTOPIC_ATOM_COUNT>
0

> <PUBCHEM_COMPONENT_COUNT>
1

> <PUBCHEM_CACTVS_TAUTO_COUNT>
49

> <PUBCHEM_CONFORMER_ID>
02F85A7900000001

> <PUBCHEM_MMFF94_ENERGY>
89.0749

> <PUBCHEM_FEATURE_SELFOVERLAP>
66.163

> <PUBCHEM_SHAPE_FINGERPRINT>
10616163 171 18267303123754242502
11578080 2 17845352424165940168
12107183 9 18341626919074610249
12422481 6 18055653732551060713
12553582 1 18339349876930750934
12788726 201 18334292037633527586
13140716 1 17836641199112171545
13533116 47 17838334447836513655
13726171 33 18056505905850848092
13785724 45 18340784697114794231
138480 1 15457337030670756764
14178342 30 17407944948410465681
14866123 147 18124032330618061929
15042514 8 18266460906005323097
16110190 28 18342739645841715986
17492 89 18336827464587926498
19319366 153 18115028640436108230
19591789 44 18411136901061723169
19930381 70 17760924443246050130
20291156 8 18410571820746520324
20775438 99 17190885874505494959
314173 41 18267308805663867268
352729 6 17980754948416077332
3737641 26 18409738386785300930
44880168 125 17418098672416897486
463206 1 18191589855238476994
5309563 4 18194684988754834278
56633871 153 18343305885735512783
7097593 13 18124595542353036941
79837 15 17764872394433078712

> <PUBCHEM_SHAPE_MULTIPOLES>
488.46
9.71
5.18
0.86
0.69
3.38
-0.03
-6.82
1.59
-0.7
-0.09
-0.21
-0.33
-0.71

> <PUBCHEM_SHAPE_SELFOVERLAP>
1088.557

> <PUBCHEM_SHAPE_VOLUME>
254.3

> <PUBCHEM_COORDINATE_TYPE>
2
5
10

$$$$
