9826308
  -OEChem-10062122023D

 51 54  0     0  0  0  0  0  0999 V2000
   -0.5783    3.3295    0.3011 S   0  0  0  0  0  0  0  0  0  0  0  0
    5.1874   -1.1264   -2.7224 F   0  0  0  0  0  0  0  0  0  0  0  0
    3.0928   -1.5969   -2.4132 F   0  0  0  0  0  0  0  0  0  0  0  0
    3.8509    0.3724   -1.8881 F   0  0  0  0  0  0  0  0  0  0  0  0
    2.2179    0.6702    0.5350 O   0  0  0  0  0  0  0  0  0  0  0  0
   -3.8547   -2.8577    0.9773 O   0  0  0  0  0  0  0  0  0  0  0  0
   -6.3478   -2.1989   -0.0222 O   0  0  0  0  0  0  0  0  0  0  0  0
    1.8645    4.8816    1.0957 O   0  0  0  0  0  0  0  0  0  0  0  0
   -2.4776    1.6255   -0.4132 N   0  0  0  0  0  0  0  0  0  0  0  0
   -4.4786    2.1618   -1.2183 N   0  0  0  0  0  0  0  0  0  0  0  0
    3.3165    3.1395    1.1794 N   0  0  0  0  0  0  0  0  0  0  0  0
   -3.2644    0.5222   -0.2032 C   0  0  0  0  0  0  0  0  0  0  0  0
   -1.1471    1.7687   -0.0786 C   0  0  0  0  0  0  0  0  0  0  0  0
   -4.5082    0.8818   -0.7142 C   0  0  0  0  0  0  0  0  0  0  0  0
   -3.0027   -0.7215    0.3724 C   0  0  0  0  0  0  0  0  0  0  0  0
    1.0789    1.3678    0.3780 C   0  0  0  0  0  0  0  0  0  0  0  0
   -0.1757    0.8105   -0.0032 C   0  0  0  0  0  0  0  0  0  0  0  0
   -3.2475    2.5774   -1.0217 C   0  0  0  0  0  0  0  0  0  0  0  0
   -5.5654   -0.0418   -0.6561 C   0  0  0  0  0  0  0  0  0  0  0  0
   -4.0664   -1.6285    0.4221 C   0  0  0  0  0  0  0  0  0  0  0  0
    1.0018    2.7291    0.5751 C   0  0  0  0  0  0  0  0  0  0  0  0
   -5.3259   -1.2968   -0.0825 C   0  0  0  0  0  0  0  0  0  0  0  0
    2.1695   -0.7442    0.3016 C   0  0  0  0  0  0  0  0  0  0  0  0
    3.5265   -1.3300    0.5606 C   0  0  0  0  0  0  0  0  0  0  0  0
    4.4654   -1.4279   -0.4617 C   0  0  0  0  0  0  0  0  0  0  0  0
    3.8309   -1.7739    1.8437 C   0  0  0  0  0  0  0  0  0  0  0  0
    5.7212   -1.9750   -0.1979 C   0  0  0  0  0  0  0  0  0  0  0  0
    2.0279    3.6450    0.9589 C   0  0  0  0  0  0  0  0  0  0  0  0
    4.1559   -0.9565   -1.8444 C   0  0  0  0  0  0  0  0  0  0  0  0
    5.0866   -2.3212    2.1073 C   0  0  0  0  0  0  0  0  0  0  0  0
    6.0317   -2.4218    1.0864 C   0  0  0  0  0  0  0  0  0  0  0  0
   -3.4190   -3.8945    0.1024 C   0  0  0  0  0  0  0  0  0  0  0  0
   -7.1671   -2.1697    1.1437 C   0  0  0  0  0  0  0  0  0  0  0  0
   -2.0448   -0.9887    0.7995 H   0  0  0  0  0  0  0  0  0  0  0  0
   -0.3350   -0.2296   -0.2492 H   0  0  0  0  0  0  0  0  0  0  0  0
   -2.8840    3.5503   -1.3261 H   0  0  0  0  0  0  0  0  0  0  0  0
   -6.5452    0.2134   -1.0482 H   0  0  0  0  0  0  0  0  0  0  0  0
    1.8184   -0.9582   -0.7116 H   0  0  0  0  0  0  0  0  0  0  0  0
    1.4498   -1.2037    0.9931 H   0  0  0  0  0  0  0  0  0  0  0  0
    3.1052   -1.6986    2.6490 H   0  0  0  0  0  0  0  0  0  0  0  0
    6.4725   -2.0628   -0.9779 H   0  0  0  0  0  0  0  0  0  0  0  0
    5.3288   -2.6682    3.1075 H   0  0  0  0  0  0  0  0  0  0  0  0
    7.0094   -2.8477    1.2920 H   0  0  0  0  0  0  0  0  0  0  0  0
   -2.4519   -3.6399   -0.3427 H   0  0  0  0  0  0  0  0  0  0  0  0
   -3.3037   -4.8110    0.6874 H   0  0  0  0  0  0  0  0  0  0  0  0
   -4.1591   -4.0729   -0.6842 H   0  0  0  0  0  0  0  0  0  0  0  0
   -7.9277   -2.9493    1.0478 H   0  0  0  0  0  0  0  0  0  0  0  0
   -7.6688   -1.2011    1.2361 H   0  0  0  0  0  0  0  0  0  0  0  0
   -6.5713   -2.3711    2.0396 H   0  0  0  0  0  0  0  0  0  0  0  0
    4.0747    3.7589    1.4462 H   0  0  0  0  0  0  0  0  0  0  0  0
    3.5459    2.1557    1.0845 H   0  0  0  0  0  0  0  0  0  0  0  0
  1 13  1  0  0  0  0
  1 21  1  0  0  0  0
  2 29  1  0  0  0  0
  3 29  1  0  0  0  0
  4 29  1  0  0  0  0
  5 16  1  0  0  0  0
  5 23  1  0  0  0  0
  6 20  1  0  0  0  0
  6 32  1  0  0  0  0
  7 22  1  0  0  0  0
  7 33  1  0  0  0  0
  8 28  2  0  0  0  0
  9 12  1  0  0  0  0
  9 13  1  0  0  0  0
  9 18  1  0  0  0  0
 10 14  1  0  0  0  0
 10 18  2  0  0  0  0
 11 28  1  0  0  0  0
 11 50  1  0  0  0  0
 11 51  1  0  0  0  0
 12 14  1  0  0  0  0
 12 15  2  0  0  0  0
 13 17  2  0  0  0  0
 14 19  2  0  0  0  0
 15 20  1  0  0  0  0
 15 34  1  0  0  0  0
 16 17  1  0  0  0  0
 16 21  2  0  0  0  0
 17 35  1  0  0  0  0
 18 36  1  0  0  0  0
 19 22  1  0  0  0  0
 19 37  1  0  0  0  0
 20 22  2  0  0  0  0
 21 28  1  0  0  0  0
 23 24  1  0  0  0  0
 23 38  1  0  0  0  0
 23 39  1  0  0  0  0
 24 25  1  0  0  0  0
 24 26  2  0  0  0  0
 25 27  2  0  0  0  0
 25 29  1  0  0  0  0
 26 30  1  0  0  0  0
 26 40  1  0  0  0  0
 27 31  1  0  0  0  0
 27 41  1  0  0  0  0
 30 31  2  0  0  0  0
 30 42  1  0  0  0  0
 31 43  1  0  0  0  0
 32 44  1  0  0  0  0
 32 45  1  0  0  0  0
 32 46  1  0  0  0  0
 33 47  1  0  0  0  0
 33 48  1  0  0  0  0
 33 49  1  0  0  0  0
M  END
> <PUBCHEM_COMPOUND_CID>
9826308

> <PUBCHEM_CONFORMER_RMSD>
1

> <PUBCHEM_CONFORMER_DIVERSEORDER>
1
212
153
92
152
50
202
143
275
45
248
224
3
21
148
56
156
94
192
132
232
125
164
29
39
182
245
104
255
210
151
205
246
184
188
48
220
155
93
227
110
81
150
36
263
169
102
243
78
264
83
42
170
7
98
11
261
268
131
158
257
106
190
234
75
149
273
185
167
14
80
147
172
198
82
274
253
160
109
105
183
52
186
44
146
135
178
120
85
26
100
181
101
197
168
95
66
46
260
196
116
124
89
208
70
31
229
140
69
117
24
84
138
130
37
262
90
267
87
191
71
115
99
35
276
141
240
199
174
49
235
238
271
13
33
15
127
159
72
23
277
96
177
27
91
219
166
8
194
254
251
244
214
55
129
97
20
17
22
176
201
250
258
221
43
53
207
237
226
269
40
60
252
62
65
67
86
107
203
10
77
16
58
241
233
111
118
34
38
230
223
209
225
179
216
206
73
121
64
88
162
2
112
175
204
63
173
30
18
108
228
215
270
123
157
51
25
61
239
9
133
54
134
6
139
74
68
231
217
114
222
265
278
171
126
142
19
145
137
47
200
76
249
113
5
128
161
180
247
28
144
193
41
136
213
103
256
211
32
195
189
119
236
163
57
259
4
266
122
242
272
154
12
79
187
218
165
59

> <PUBCHEM_MMFF94_PARTIAL_CHARGES>
43
1 -0.08
10 -0.57
11 -0.8
12 -0.15
13 -0.04
14 0.23
15 -0.15
16 0.06
17 -0.15
18 0.04
19 -0.15
2 -0.34
20 0.08
21 -0.05
22 0.08
23 0.42
24 -0.14
25 -0.14
26 -0.15
27 -0.15
28 0.71
29 1.16
3 -0.34
30 -0.15
31 -0.15
32 0.28
33 0.28
34 0.15
35 0.15
36 0.15
37 0.15
4 -0.34
40 0.15
41 0.15
42 0.15
43 0.15
5 -0.34
50 0.37
51 0.37
6 -0.36
7 -0.36
8 -0.57
9 0.38

> <PUBCHEM_EFFECTIVE_ROTOR_COUNT>
8

> <PUBCHEM_PHARMACOPHORE_FEATURES>
10
1 11 donor
1 5 acceptor
1 6 acceptor
1 7 acceptor
1 8 acceptor
3 9 10 18 cation
5 1 13 16 17 21 rings
5 9 10 12 14 18 rings
6 12 14 15 19 20 22 rings
6 24 25 26 27 30 31 rings

> <PUBCHEM_HEAVY_ATOM_COUNT>
33

> <PUBCHEM_ATOM_DEF_STEREO_COUNT>
0

> <PUBCHEM_ATOM_UDEF_STEREO_COUNT>
0

> <PUBCHEM_BOND_DEF_STEREO_COUNT>
0

> <PUBCHEM_BOND_UDEF_STEREO_COUNT>
0

> <PUBCHEM_ISOTOPIC_ATOM_COUNT>
0

> <PUBCHEM_COMPONENT_COUNT>
1

> <PUBCHEM_CACTVS_TAUTO_COUNT>
2

> <PUBCHEM_CONFORMER_ID>
0095F00400000001

> <PUBCHEM_MMFF94_ENERGY>
103.2871

> <PUBCHEM_FEATURE_SELFOVERLAP>
50.859

> <PUBCHEM_SHAPE_FINGERPRINT>
10050765 1 18409725166982504809
10169797 241 18339929328270187210
10622 236 17460580434338586546
10928967 22 18335148604510487107
11135609 99 18190449477772872578
11963148 33 18048868894898353011
12107183 9 18270689667292988257
12293681 25 17750525155191632625
12633046 712 18189037746747190511
12788726 201 18190747423283609370
13540713 4 18263625382172788205
13690498 29 18260831488507499007
13726171 33 18268455514930319932
13782708 43 18335417989575855835
14725015 67 18335413574381514131
14910302 57 18040985250835674789
15721738 202 17632580453065322872
16112460 7 18342185491997213299
17138139 8 17894907387243729274
17909252 39 18337961180817861256
19315958 150 18194119845207034209
19319366 153 17532652322001028947
19611394 137 18341885274353129970
19841028 212 18125430055322680575
20511986 3 17531800247797146502
20567600 70 18410002235443108560
20693207 138 18334006203513294925
22440779 20 17389423482426830681
2260408 40 16917077628797056930
23522609 53 18044972041475660213
23559900 14 18337377314711948401
3004659 81 17967812692014841546
329604 57 18333455326390929166
3383291 50 18340760465241821019
4280585 95 18264477413120288224
439807 62 18040720260164978843
5104073 3 18272368681372325505
613672 6 18130217138963082276
6371380 46 18193827164376376549
6700243 42 18050310092733233548
6823239 73 18410562985856472232
8863177 126 18408601487520006387
9709674 26 18337662127067859593

> <PUBCHEM_SHAPE_MULTIPOLES>
622.73
16.07
5.14
1.67
5.79
3.53
0.79
-16.34
0.21
0.15
-2.08
-2.94
-0.55
1.82

> <PUBCHEM_SHAPE_SELFOVERLAP>
1362.938

> <PUBCHEM_SHAPE_VOLUME>
343.7

> <PUBCHEM_COORDINATE_TYPE>
2
5
10

$$$$
