44440261
  -OEChem-10062122003D

 59 63  0     0  0  0  0  0  0999 V2000
   -2.0984   -1.6532    0.3039 S   0  0  0  0  0  0  0  0  0  0  0  0
    7.5424    0.3017   -0.8710 O   0  0  0  0  0  0  0  0  0  0  0  0
    7.5552   -3.8877   -0.2628 O   0  0  0  0  0  0  0  0  0  0  0  0
    8.0981   -1.9764    0.9111 O   0  0  0  0  0  0  0  0  0  0  0  0
   -7.8823   -0.0961    0.1046 O   0  0  0  0  0  0  0  0  0  0  0  0
    0.6079    3.8069    0.4477 N   0  0  0  0  0  0  0  0  0  0  0  0
   -0.5475    3.1002    0.5467 N   0  0  0  0  0  0  0  0  0  0  0  0
    5.2145    0.0911   -0.5930 N   0  0  0  0  0  0  0  0  0  0  0  0
    2.2834    0.7158   -0.1038 C   0  0  0  0  0  0  0  0  0  0  0  0
    1.2092    1.7158    0.1523 C   0  0  0  0  0  0  0  0  0  0  0  0
    3.4590    1.7097   -0.1769 C   0  0  0  0  0  0  0  0  0  0  0  0
    1.6614    3.0040    0.2135 C   0  0  0  0  0  0  0  0  0  0  0  0
    3.0651    3.0639    0.0146 C   0  0  0  0  0  0  0  0  0  0  0  0
   -0.1656    1.8217    0.3642 C   0  0  0  0  0  0  0  0  0  0  0  0
    4.7896    1.4045   -0.4012 C   0  0  0  0  0  0  0  0  0  0  0  0
    3.9584    4.1112   -0.0119 C   0  0  0  0  0  0  0  0  0  0  0  0
    5.7099    2.4584   -0.4310 C   0  0  0  0  0  0  0  0  0  0  0  0
   -1.0849    0.7059    0.3892 C   0  0  0  0  0  0  0  0  0  0  0  0
    5.2992    3.7934   -0.2387 C   0  0  0  0  0  0  0  0  0  0  0  0
   -2.4831    0.8685    0.6101 C   0  0  0  0  0  0  0  0  0  0  0  0
   -0.7399   -0.6153    0.2079 C   0  0  0  0  0  0  0  0  0  0  0  0
    6.5175   -0.3734   -0.8214 C   0  0  0  0  0  0  0  0  0  0  0  0
   -3.1535   -0.3348    0.5887 C   0  0  0  0  0  0  0  0  0  0  0  0
    6.5877   -1.8808   -0.9833 C   0  0  0  0  0  0  0  0  0  0  0  0
    7.5055   -2.5502    0.0075 C   0  0  0  0  0  0  0  0  0  0  0  0
   -4.5568   -0.4896    0.7786 C   0  0  0  0  0  0  0  0  0  0  0  0
   -5.7403   -0.6196    0.9380 C   0  0  0  0  0  0  0  0  0  0  0  0
    8.3854   -4.6618    0.6088 C   0  0  0  0  0  0  0  0  0  0  0  0
   -7.1807   -0.7789    1.1338 C   0  0  0  0  0  0  0  0  0  0  0  0
    8.3333   -6.1126    0.1795 C   0  0  0  0  0  0  0  0  0  0  0  0
   -9.1096   -0.5972   -0.2451 C   0  0  0  0  0  0  0  0  0  0  0  0
   -9.8908   -1.2553    0.7048 C   0  0  0  0  0  0  0  0  0  0  0  0
   -9.5771   -0.4489   -1.5508 C   0  0  0  0  0  0  0  0  0  0  0  0
  -11.1395   -1.7652    0.3490 C   0  0  0  0  0  0  0  0  0  0  0  0
  -10.8257   -0.9586   -1.9067 C   0  0  0  0  0  0  0  0  0  0  0  0
  -11.6069   -1.6168   -0.9568 C   0  0  0  0  0  0  0  0  0  0  0  0
    2.1495    0.2016   -1.0588 H   0  0  0  0  0  0  0  0  0  0  0  0
    2.4113    0.0239    0.7322 H   0  0  0  0  0  0  0  0  0  0  0  0
    0.5727    4.8138    0.5529 H   0  0  0  0  0  0  0  0  0  0  0  0
    3.6459    5.1383    0.1352 H   0  0  0  0  0  0  0  0  0  0  0  0
    6.7700    2.3254   -0.6018 H   0  0  0  0  0  0  0  0  0  0  0  0
    6.0402    4.5885   -0.2686 H   0  0  0  0  0  0  0  0  0  0  0  0
    4.4776   -0.6090   -0.5627 H   0  0  0  0  0  0  0  0  0  0  0  0
   -2.9817    1.8168    0.7769 H   0  0  0  0  0  0  0  0  0  0  0  0
    0.2302   -1.0515    0.0226 H   0  0  0  0  0  0  0  0  0  0  0  0
    5.5944   -2.3296   -0.8807 H   0  0  0  0  0  0  0  0  0  0  0  0
    6.9576   -2.0780   -1.9957 H   0  0  0  0  0  0  0  0  0  0  0  0
    9.4166   -4.2956    0.5515 H   0  0  0  0  0  0  0  0  0  0  0  0
    8.0223   -4.5671    1.6382 H   0  0  0  0  0  0  0  0  0  0  0  0
   -7.3951   -1.8555    1.1279 H   0  0  0  0  0  0  0  0  0  0  0  0
   -7.4719   -0.3610    2.1040 H   0  0  0  0  0  0  0  0  0  0  0  0
    7.3052   -6.4880    0.2142 H   0  0  0  0  0  0  0  0  0  0  0  0
    8.6765   -6.2211   -0.8547 H   0  0  0  0  0  0  0  0  0  0  0  0
    8.9585   -6.7346    0.8261 H   0  0  0  0  0  0  0  0  0  0  0  0
   -9.5767   -1.3680    1.7382 H   0  0  0  0  0  0  0  0  0  0  0  0
   -8.9728    0.0627   -2.2949 H   0  0  0  0  0  0  0  0  0  0  0  0
  -11.7509   -2.2722    1.0898 H   0  0  0  0  0  0  0  0  0  0  0  0
  -11.1898   -0.8429   -2.9234 H   0  0  0  0  0  0  0  0  0  0  0  0
  -12.5798   -2.0124   -1.2336 H   0  0  0  0  0  0  0  0  0  0  0  0
  1 21  1  0  0  0  0
  1 23  1  0  0  0  0
  2 22  2  0  0  0  0
  3 25  1  0  0  0  0
  3 28  1  0  0  0  0
  4 25  2  0  0  0  0
  5 29  1  0  0  0  0
  5 31  1  0  0  0  0
  6  7  1  0  0  0  0
  6 12  1  0  0  0  0
  6 39  1  0  0  0  0
  7 14  2  0  0  0  0
  8 15  1  0  0  0  0
  8 22  1  0  0  0  0
  8 43  1  0  0  0  0
  9 10  1  0  0  0  0
  9 11  1  0  0  0  0
  9 37  1  0  0  0  0
  9 38  1  0  0  0  0
 10 12  2  0  0  0  0
 10 14  1  0  0  0  0
 11 13  2  0  0  0  0
 11 15  1  0  0  0  0
 12 13  1  0  0  0  0
 13 16  1  0  0  0  0
 14 18  1  0  0  0  0
 15 17  2  0  0  0  0
 16 19  2  0  0  0  0
 16 40  1  0  0  0  0
 17 19  1  0  0  0  0
 17 41  1  0  0  0  0
 18 20  1  0  0  0  0
 18 21  2  0  0  0  0
 19 42  1  0  0  0  0
 20 23  2  0  0  0  0
 20 44  1  0  0  0  0
 21 45  1  0  0  0  0
 22 24  1  0  0  0  0
 23 26  1  0  0  0  0
 24 25  1  0  0  0  0
 24 46  1  0  0  0  0
 24 47  1  0  0  0  0
 26 27  3  0  0  0  0
 27 29  1  0  0  0  0
 28 30  1  0  0  0  0
 28 48  1  0  0  0  0
 28 49  1  0  0  0  0
 29 50  1  0  0  0  0
 29 51  1  0  0  0  0
 30 52  1  0  0  0  0
 30 53  1  0  0  0  0
 30 54  1  0  0  0  0
 31 32  2  0  0  0  0
 31 33  1  0  0  0  0
 32 34  1  0  0  0  0
 32 55  1  0  0  0  0
 33 35  2  0  0  0  0
 33 56  1  0  0  0  0
 34 36  2  0  0  0  0
 34 57  1  0  0  0  0
 35 36  1  0  0  0  0
 35 58  1  0  0  0  0
 36 59  1  0  0  0  0
M  END
> <PUBCHEM_COMPOUND_CID>
44440261

> <PUBCHEM_CONFORMER_RMSD>
1

> <PUBCHEM_CONFORMER_DIVERSEORDER>
1
148
173
183
55
38
167
70
53
131
50
72
39
96
37
169
80
3
76
11
164
162
182
32
134
111
5
102
69
185
23
60
29
108
133
14
170
137
73
138
92
171
101
158
20
26
97
103
12
52
93
140
21
54
113
2
79
8
67
186
66
132
144
74
46
24
16
25
35
121
146
143
105
41
94
40
4
104
95
120
175
109
145
75
91
71
7
112
127
34
119
117
89
154
31
18
172
128
168
15
160
88
116
156
86
65
165
59
124
147
17
176
87
100
48
30
161
180
98
114
110
49
27
58
184
19
141
106
150
107
85
153
10
181
129
139
115
155
9
149
177
142
43
152
44
61
174
42
68
45
151
13
36
6
90
126
178
166
159
57
187
77
122
63
28
83
123
118
99
64
84
62
157
135
81
33
82
78
163
136
125
22
179
51
130
47
56

> <PUBCHEM_MMFF94_PARTIAL_CHARGES>
46
1 -0.08
10 -0.18
11 -0.14
12 -0.2
13 0.05
14 0.29
15 0.12
16 -0.15
17 -0.15
19 -0.15
2 -0.57
20 -0.15
21 -0.11
22 0.57
23 0.06
24 0.12
25 0.66
26 -0.02
27 -0.2
28 0.28
29 0.48
3 -0.43
31 0.08
32 -0.15
33 -0.15
34 -0.15
35 -0.15
36 -0.15
39 0.27
4 -0.57
40 0.15
41 0.15
42 0.15
43 0.37
44 0.15
45 0.15
5 -0.36
55 0.15
56 0.15
57 0.15
58 0.15
59 0.15
6 0.3
7 -0.71
8 -0.55
9 0.32

> <PUBCHEM_EFFECTIVE_ROTOR_COUNT>
9.2

> <PUBCHEM_PHARMACOPHORE_FEATURES>
12
1 2 acceptor
1 24 anion
1 4 acceptor
1 5 acceptor
1 6 donor
1 7 acceptor
1 8 donor
5 1 18 20 21 23 rings
5 6 7 10 12 14 rings
5 9 10 11 12 13 rings
6 11 13 15 16 17 19 rings
6 31 32 33 34 35 36 rings

> <PUBCHEM_HEAVY_ATOM_COUNT>
36

> <PUBCHEM_ATOM_DEF_STEREO_COUNT>
0

> <PUBCHEM_ATOM_UDEF_STEREO_COUNT>
0

> <PUBCHEM_BOND_DEF_STEREO_COUNT>
0

> <PUBCHEM_BOND_UDEF_STEREO_COUNT>
0

> <PUBCHEM_ISOTOPIC_ATOM_COUNT>
0

> <PUBCHEM_COMPONENT_COUNT>
1

> <PUBCHEM_CACTVS_TAUTO_COUNT>
4

> <PUBCHEM_CONFORMER_ID>
02A61AC500000001

> <PUBCHEM_MMFF94_ENERGY>
98.4095

> <PUBCHEM_FEATURE_SELFOVERLAP>
61.238

> <PUBCHEM_SHAPE_FINGERPRINT>
10533779 47 18263098733345575155
11146346 40 17967809406117363506
11409948 35 18409167710196432427
11672396 167 18410573950939867251
117089 54 18193567671400983210
11966995 16 18259990366471002286
12013929 112 16660644038574362599
12089408 11 17703799158929424777
14216079 64 18411704283505751072
14400156 413 18268429225362628993
14617042 71 8718824293217020267
150020 25 18113896101031688461
15152005 1 18123193399437184302
15554971 5 17703802435731067497
19301676 85 18335428967085861122
2026 5 18339642239776813687
20771845 140 16630532817151073068
21133410 58 18409731807101995694
21792938 131 18040707040149972498
21895431 317 18272089370932777951
23522609 53 12324230634073378559
23524908 199 18408320008512254421
23569943 247 18336837381192725178
335352 9 18341058509432005525
353859 58 18047187450243287882
437795 160 15554451804197017195
45270241 37 18117003393179117876
474113 269 18411700958832039115
59682541 35 11240008862918450637
6081469 158 18186801396374090853
6204607 403 7925626726683912863

> <PUBCHEM_SHAPE_MULTIPOLES>
706.29
40.87
5.95
1.07
97.86
4.7
-0.26
48.15
-10.3
-25.35
0.63
2.08
0.3
-1.41

> <PUBCHEM_SHAPE_SELFOVERLAP>
1537.03

> <PUBCHEM_SHAPE_VOLUME>
386.5

> <PUBCHEM_COORDINATE_TYPE>
2
5
10

$$$$
