136027078
  -OEChem-10062122023D

 31 34  0     0  0  0  0  0  0999 V2000
    6.6563   -2.3999   -1.4701 I   0  0  0  0  0  0  0  0  0  0  0  0
   -2.4801    2.0112   -0.7428 S   0  0  0  0  0  0  0  0  0  0  0  0
    1.6756    0.1305    1.3317 O   0  0  0  0  0  0  0  0  0  0  0  0
   -5.6950   -1.0358   -0.4891 O   0  0  0  0  0  0  0  0  0  0  0  0
   -5.4447   -3.1135    0.4458 O   0  0  0  0  0  0  0  0  0  0  0  0
    1.2405    3.4276   -0.1678 N   0  0  0  0  0  0  0  0  0  0  0  0
   -3.7235   -1.5773    0.3487 N   0  0  0  0  0  0  0  0  0  0  0  0
   -4.7996    0.0578   -0.6610 N   0  0  0  0  0  0  0  0  0  0  0  0
   -0.2868    1.1301    0.3040 C   0  0  0  0  0  0  0  0  0  0  0  0
   -0.8258    2.2547   -0.3278 C   0  0  0  0  0  0  0  0  0  0  0  0
   -2.4869    0.4342   -0.0951 C   0  0  0  0  0  0  0  0  0  0  0  0
   -1.2644    0.0870    0.4292 C   0  0  0  0  0  0  0  0  0  0  0  0
    1.0621    1.1777    0.7050 C   0  0  0  0  0  0  0  0  0  0  0  0
   -3.6867   -0.3361   -0.1516 C   0  0  0  0  0  0  0  0  0  0  0  0
   -0.0528    3.3946   -0.5570 C   0  0  0  0  0  0  0  0  0  0  0  0
    1.7609    2.3447    0.4414 C   0  0  0  0  0  0  0  0  0  0  0  0
    2.7773   -0.4288    0.7112 C   0  0  0  0  0  0  0  0  0  0  0  0
    2.7455   -0.6991   -0.6569 C   0  0  0  0  0  0  0  0  0  0  0  0
    3.9206   -0.7235    1.4539 C   0  0  0  0  0  0  0  0  0  0  0  0
   -4.9813   -2.0242    0.1412 C   0  0  0  0  0  0  0  0  0  0  0  0
    3.8568   -1.2641   -1.2823 C   0  0  0  0  0  0  0  0  0  0  0  0
    5.0321   -1.2887    0.8287 C   0  0  0  0  0  0  0  0  0  0  0  0
    5.0001   -1.5591   -0.5394 C   0  0  0  0  0  0  0  0  0  0  0  0
   -1.0560   -0.8716    0.8888 H   0  0  0  0  0  0  0  0  0  0  0  0
   -0.4377    4.2826   -1.0433 H   0  0  0  0  0  0  0  0  0  0  0  0
    2.8016    2.4549    0.7323 H   0  0  0  0  0  0  0  0  0  0  0  0
   -2.9756   -2.0945    0.7950 H   0  0  0  0  0  0  0  0  0  0  0  0
    1.8621   -0.4962   -1.2561 H   0  0  0  0  0  0  0  0  0  0  0  0
    3.9506   -0.5146    2.5198 H   0  0  0  0  0  0  0  0  0  0  0  0
    3.8097   -1.4702   -2.3486 H   0  0  0  0  0  0  0  0  0  0  0  0
    5.9127   -1.5103    1.4262 H   0  0  0  0  0  0  0  0  0  0  0  0
  1 23  1  0  0  0  0
  2 10  1  0  0  0  0
  2 11  1  0  0  0  0
  3 13  1  0  0  0  0
  3 17  1  0  0  0  0
  4  8  1  0  0  0  0
  4 20  1  0  0  0  0
  5 20  2  0  0  0  0
  6 15  2  0  0  0  0
  6 16  1  0  0  0  0
  7 14  1  0  0  0  0
  7 20  1  0  0  0  0
  7 27  1  0  0  0  0
  8 14  2  0  0  0  0
  9 10  2  0  0  0  0
  9 12  1  0  0  0  0
  9 13  1  0  0  0  0
 10 15  1  0  0  0  0
 11 12  2  0  0  0  0
 11 14  1  0  0  0  0
 12 24  1  0  0  0  0
 13 16  2  0  0  0  0
 15 25  1  0  0  0  0
 16 26  1  0  0  0  0
 17 18  2  0  0  0  0
 17 19  1  0  0  0  0
 18 21  1  0  0  0  0
 18 28  1  0  0  0  0
 19 22  2  0  0  0  0
 19 29  1  0  0  0  0
 21 23  2  0  0  0  0
 21 30  1  0  0  0  0
 22 23  1  0  0  0  0
 22 31  1  0  0  0  0
M  END
> <PUBCHEM_COMPOUND_CID>
136027078

> <PUBCHEM_CONFORMER_RMSD>
0.6

> <PUBCHEM_CONFORMER_DIVERSEORDER>
1
26
14
27
6
24
30
13
23
11
35
3
20
8
22
10
36
4
29
7
5
2
9
12
21
19
34
33
16
15
31
32
28
18
17
25

> <PUBCHEM_MMFF94_PARTIAL_CHARGES>
30
1 -0.08
10 0.04
11 -0.05
12 -0.15
13 0.08
14 0.59
15 0.16
16 0.16
17 0.08
18 -0.15
19 -0.15
2 -0.08
20 0.78
21 -0.15
22 -0.15
23 0.08
24 0.15
25 0.15
26 0.15
27 0.37
28 0.15
29 0.15
3 -0.17
30 0.15
31 0.15
4 -0.09
5 -0.57
6 -0.62
7 -0.49
8 -0.51

> <PUBCHEM_EFFECTIVE_ROTOR_COUNT>
3

> <PUBCHEM_PHARMACOPHORE_FEATURES>
9
1 1 hydrophobe
1 3 acceptor
1 5 acceptor
1 6 acceptor
1 7 donor
5 2 9 10 11 12 rings
5 4 7 8 14 20 rings
6 17 18 19 21 22 23 rings
6 6 9 10 13 15 16 rings

> <PUBCHEM_HEAVY_ATOM_COUNT>
23

> <PUBCHEM_ATOM_DEF_STEREO_COUNT>
0

> <PUBCHEM_ATOM_UDEF_STEREO_COUNT>
0

> <PUBCHEM_BOND_DEF_STEREO_COUNT>
0

> <PUBCHEM_BOND_UDEF_STEREO_COUNT>
0

> <PUBCHEM_ISOTOPIC_ATOM_COUNT>
0

> <PUBCHEM_COMPONENT_COUNT>
1

> <PUBCHEM_CACTVS_TAUTO_COUNT>
-1

> <PUBCHEM_CONFORMER_ID>
081B9BC600000001

> <PUBCHEM_MMFF94_ENERGY>
62.3561

> <PUBCHEM_FEATURE_SELFOVERLAP>
45.737

> <PUBCHEM_SHAPE_FINGERPRINT>
10692045 39 9295020024969581156
12107183 9 18340496582561541897
12363563 72 18409453574307797432
12403259 118 11383533616653588674
12553582 1 18261395511817655131
13009979 54 18201450176837814921
13103583 49 14764336133531124662
13402501 40 18201441354706268566
13533116 47 18126004004448995667
13540713 4 18338496608679748601
13631057 29 18339646612633509774
13673619 4 17846782863224169530
13690498 29 18186524280731104973
13740256 8 18411138034627062736
13757389 114 17977956682813282548
13782708 43 17845374345990599022
13955234 65 18054509385332952977
14123256 34 18411426115258849499
14251740 57 18269552908991265939
14251764 30 18341335517864346062
14739800 52 8286208205999629094
14790565 3 17401763021767682457
14848178 96 8934732110034020135
14866123 147 18195810674641137225
15324884 4 17770750491760616248
15342816 4 18261387824195414554
15352361 1 18410007732510779467
15461852 350 18265625291445864750
17138139 8 17821725040060676770
17492 89 18267304429704375419
1813 80 18411702084150452468
18222031 100 18412823590421549066
193927 3 18343021103422370555
19784866 240 18272093794495008107
19784866 34 8646775486623624997
20374829 77 18335978701429121475
20388580 30 18408324410368650340
20403669 9 18411696582508349311
20621476 21 18202286875021599726
20645477 70 18191581055071734689
20693207 138 17822843295125633157
20775438 99 17831852821742011011
20871999 31 18260832536152666044
21307412 95 18411975833209102519
21344244 246 18263094365554109020
22182313 1 18265307621371358788
22950370 63 18410016519887221097
23379529 103 18338802328830935979
23424784 1240 17610349607974097211
23557571 272 18056197973637846940
23559900 14 18337099172877447857
255183 451 18337676437777363135
2838139 119 13912322352685546526
3004659 81 18114183029762420358
329604 57 18335424565017552148
335352 9 18336259056110828477
3421961 26 18339920531960932625
437815 12 18201996599646050805
465052 167 18271812357867411935
621550 5 18060133198794599056
6669772 16 17980770655924362772
6823239 73 18336254721549531321
7970288 3 18411136913794501830
8217 86 18412550890638121614
9709674 26 17971751327538760339

> <PUBCHEM_SHAPE_MULTIPOLES>
456.56
14.08
3.63
1.2
4.73
1.62
0.05
-17.32
-3.4
-2.71
-0.54
1.56
-0.21
1.77

> <PUBCHEM_SHAPE_SELFOVERLAP>
988.198

> <PUBCHEM_SHAPE_VOLUME>
255.3

> <PUBCHEM_COORDINATE_TYPE>
2
5
10

$$$$
