44586040
  -OEChem-10062122013D

 19 20  0     0  0  0  0  0  0999 V2000
    2.0273   -1.8115   -0.0109 O   0  0  0  0  0  0  0  0  0  0  0  0
   -0.8153   -1.6315    0.0029 N   0  0  0  0  0  0  0  0  0  0  0  0
   -2.1501   -1.7854    0.0017 N   0  0  0  0  0  0  0  0  0  0  0  0
    3.3063    0.0917    0.0050 N   0  0  0  0  0  0  0  0  0  0  0  0
   -0.4008   -0.3271    0.0012 C   0  0  0  0  0  0  0  0  0  0  0  0
   -1.5683    0.4280   -0.0004 C   0  0  0  0  0  0  0  0  0  0  0  0
    0.8745    0.2422    0.0011 C   0  0  0  0  0  0  0  0  0  0  0  0
   -1.4810    1.8302   -0.0021 C   0  0  0  0  0  0  0  0  0  0  0  0
    0.9450    1.6393   -0.0006 C   0  0  0  0  0  0  0  0  0  0  0  0
   -2.6046   -0.5302    0.0002 C   0  0  0  0  0  0  0  0  0  0  0  0
   -0.2114    2.4215   -0.0021 C   0  0  0  0  0  0  0  0  0  0  0  0
    2.0784   -0.5673    0.0039 C   0  0  0  0  0  0  0  0  0  0  0  0
   -2.3732    2.4488   -0.0034 H   0  0  0  0  0  0  0  0  0  0  0  0
    1.8830    2.1838   -0.0012 H   0  0  0  0  0  0  0  0  0  0  0  0
   -0.2395   -2.4642    0.0045 H   0  0  0  0  0  0  0  0  0  0  0  0
   -3.6726   -0.3641   -0.0007 H   0  0  0  0  0  0  0  0  0  0  0  0
   -0.1278    3.5054   -0.0035 H   0  0  0  0  0  0  0  0  0  0  0  0
    3.4369    1.0952    0.0123 H   0  0  0  0  0  0  0  0  0  0  0  0
    4.1637   -0.4519    0.0002 H   0  0  0  0  0  0  0  0  0  0  0  0
  1 12  2  0  0  0  0
  2  3  1  0  0  0  0
  2  5  1  0  0  0  0
  2 15  1  0  0  0  0
  3 10  2  0  0  0  0
  4 12  1  0  0  0  0
  4 18  1  0  0  0  0
  4 19  1  0  0  0  0
  5  6  2  0  0  0  0
  5  7  1  0  0  0  0
  6  8  1  0  0  0  0
  6 10  1  0  0  0  0
  7  9  2  0  0  0  0
  7 12  1  0  0  0  0
  8 11  2  0  0  0  0
  8 13  1  0  0  0  0
  9 11  1  0  0  0  0
  9 14  1  0  0  0  0
 10 16  1  0  0  0  0
 11 17  1  0  0  0  0
M  END
> <PUBCHEM_COMPOUND_CID>
44586040

> <PUBCHEM_CONFORMER_RMSD>
0.4

> <PUBCHEM_CONFORMER_DIVERSEORDER>
1
2
3
4

> <PUBCHEM_MMFF94_PARTIAL_CHARGES>
18
1 -0.57
10 0.14
11 -0.15
12 0.54
13 0.15
14 0.15
15 0.27
16 0.15
17 0.15
18 0.37
19 0.37
2 0.3
3 -0.71
4 -0.8
5 -0.15
7 0.09
8 -0.15
9 -0.15

> <PUBCHEM_EFFECTIVE_ROTOR_COUNT>
1

> <PUBCHEM_PHARMACOPHORE_FEATURES>
6
1 1 acceptor
1 2 donor
1 3 acceptor
1 4 donor
5 2 3 5 6 10 rings
6 5 6 7 8 9 11 rings

> <PUBCHEM_HEAVY_ATOM_COUNT>
12

> <PUBCHEM_ATOM_DEF_STEREO_COUNT>
0

> <PUBCHEM_ATOM_UDEF_STEREO_COUNT>
0

> <PUBCHEM_BOND_DEF_STEREO_COUNT>
0

> <PUBCHEM_BOND_UDEF_STEREO_COUNT>
0

> <PUBCHEM_ISOTOPIC_ATOM_COUNT>
0

> <PUBCHEM_COMPONENT_COUNT>
1

> <PUBCHEM_CACTVS_TAUTO_COUNT>
9

> <PUBCHEM_CONFORMER_ID>
02A8543800000001

> <PUBCHEM_MMFF94_ENERGY>
27.2228

> <PUBCHEM_FEATURE_SELFOVERLAP>
30.537

> <PUBCHEM_SHAPE_FINGERPRINT>
12423570 1 10277763719063875825
12524768 44 18343305833731194455
14128692 85 18339367486254641908
16945 1 18410856572556502373
193761 8 18338516460086798661
20201158 50 18337104661154529647
20645477 70 17616803771156821111
20871998 184 18273214162172867183
20871998 22 18341908414576746903
21040471 1 17834113048254319072
22802520 49 17913784812054748318
2334 1 17834396000646902121
23552423 10 18190462855603481877
23559900 14 17479176359189471118
241688 4 18409728482369436905
2748010 2 18194967331314419077
7364860 26 17982451804084688537

> <PUBCHEM_SHAPE_MULTIPOLES>
226.14
3.57
2.36
0.59
1.54
0.61
0
-1.28
0
-0.51
0
-0.02
0.04
0

> <PUBCHEM_SHAPE_SELFOVERLAP>
500.298

> <PUBCHEM_SHAPE_VOLUME>
122.6

> <PUBCHEM_COORDINATE_TYPE>
2
5
10

$$$$
