11645208
  -OEChem-10062121563D

 44 47  0     0  0  0  0  0  0999 V2000
   -2.0735   -1.9480    0.8537 N   0  0  0  0  0  0  0  0  0  0  0  0
    0.1438   -1.3325    0.3947 N   0  0  0  0  0  0  0  0  0  0  0  0
   -0.6829   -3.5162   -0.2015 N   0  0  0  0  0  0  0  0  0  0  0  0
    4.4202    0.1596    0.0931 N   0  0  0  0  0  0  0  0  0  0  0  0
    3.9398    2.5196    0.0343 N   0  0  0  0  0  0  0  0  0  0  0  0
   -2.8923    0.2863    0.3795 C   0  0  0  0  0  0  0  0  0  0  0  0
   -4.1683   -0.2593   -0.2759 C   0  0  0  0  0  0  0  0  0  0  0  0
   -3.1366    1.6797    0.9745 C   0  0  0  0  0  0  0  0  0  0  0  0
   -4.7278    0.7107   -1.3141 C   0  0  0  0  0  0  0  0  0  0  0  0
   -3.6980    2.6464   -0.0656 C   0  0  0  0  0  0  0  0  0  0  0  0
   -4.9611    2.0967   -0.7212 C   0  0  0  0  0  0  0  0  0  0  0  0
   -2.3823   -0.6758    1.4507 C   0  0  0  0  0  0  0  0  0  0  0  0
   -0.8295   -2.2765    0.3314 C   0  0  0  0  0  0  0  0  0  0  0  0
    1.3396   -1.6851   -0.1213 C   0  0  0  0  0  0  0  0  0  0  0  0
    2.3677   -0.6869   -0.0538 C   0  0  0  0  0  0  0  0  0  0  0  0
    2.2674    0.7294   -0.0747 C   0  0  0  0  0  0  0  0  0  0  0  0
    1.5975   -2.9173   -0.6864 C   0  0  0  0  0  0  0  0  0  0  0  0
    3.5640    1.2267    0.0183 C   0  0  0  0  0  0  0  0  0  0  0  0
    3.7039   -1.0083    0.0496 C   0  0  0  0  0  0  0  0  0  0  0  0
    0.5382   -3.8018   -0.6992 C   0  0  0  0  0  0  0  0  0  0  0  0
    1.2220    1.6630   -0.1627 C   0  0  0  0  0  0  0  0  0  0  0  0
    1.5552    3.0162   -0.1506 C   0  0  0  0  0  0  0  0  0  0  0  0
    2.8933    3.3735   -0.0528 C   0  0  0  0  0  0  0  0  0  0  0  0
   -2.1282    0.3841   -0.4038 H   0  0  0  0  0  0  0  0  0  0  0  0
   -4.9323   -0.4461    0.4898 H   0  0  0  0  0  0  0  0  0  0  0  0
   -3.9741   -1.2170   -0.7721 H   0  0  0  0  0  0  0  0  0  0  0  0
   -2.1992    2.0849    1.3741 H   0  0  0  0  0  0  0  0  0  0  0  0
   -3.8372    1.6088    1.8164 H   0  0  0  0  0  0  0  0  0  0  0  0
   -4.0290    0.7866   -2.1563 H   0  0  0  0  0  0  0  0  0  0  0  0
   -5.6694    0.3186   -1.7149 H   0  0  0  0  0  0  0  0  0  0  0  0
   -3.9179    3.6098    0.4078 H   0  0  0  0  0  0  0  0  0  0  0  0
   -2.9391    2.8344   -0.8351 H   0  0  0  0  0  0  0  0  0  0  0  0
   -5.7652    2.0444    0.0231 H   0  0  0  0  0  0  0  0  0  0  0  0
   -5.2972    2.7824   -1.5070 H   0  0  0  0  0  0  0  0  0  0  0  0
   -1.5194   -0.2579    1.9830 H   0  0  0  0  0  0  0  0  0  0  0  0
   -3.1595   -0.8289    2.2096 H   0  0  0  0  0  0  0  0  0  0  0  0
   -2.7970   -2.6558    0.8001 H   0  0  0  0  0  0  0  0  0  0  0  0
    2.5501   -3.2025   -1.1146 H   0  0  0  0  0  0  0  0  0  0  0  0
    4.2250   -1.9547    0.1067 H   0  0  0  0  0  0  0  0  0  0  0  0
    0.6441   -4.7934   -1.1258 H   0  0  0  0  0  0  0  0  0  0  0  0
    5.4256    0.2248    0.1703 H   0  0  0  0  0  0  0  0  0  0  0  0
    0.1843    1.3582   -0.2422 H   0  0  0  0  0  0  0  0  0  0  0  0
    0.7825    3.7748   -0.2171 H   0  0  0  0  0  0  0  0  0  0  0  0
    3.1710    4.4243   -0.0422 H   0  0  0  0  0  0  0  0  0  0  0  0
  1 12  1  0  0  0  0
  1 13  1  0  0  0  0
  1 37  1  0  0  0  0
  2 13  1  0  0  0  0
  2 14  2  0  0  0  0
  3 13  2  0  0  0  0
  3 20  1  0  0  0  0
  4 18  1  0  0  0  0
  4 19  1  0  0  0  0
  4 41  1  0  0  0  0
  5 18  1  0  0  0  0
  5 23  2  0  0  0  0
  6  7  1  0  0  0  0
  6  8  1  0  0  0  0
  6 12  1  0  0  0  0
  6 24  1  0  0  0  0
  7  9  1  0  0  0  0
  7 25  1  0  0  0  0
  7 26  1  0  0  0  0
  8 10  1  0  0  0  0
  8 27  1  0  0  0  0
  8 28  1  0  0  0  0
  9 11  1  0  0  0  0
  9 29  1  0  0  0  0
  9 30  1  0  0  0  0
 10 11  1  0  0  0  0
 10 31  1  0  0  0  0
 10 32  1  0  0  0  0
 11 33  1  0  0  0  0
 11 34  1  0  0  0  0
 12 35  1  0  0  0  0
 12 36  1  0  0  0  0
 14 15  1  0  0  0  0
 14 17  1  0  0  0  0
 15 16  1  0  0  0  0
 15 19  2  0  0  0  0
 16 18  2  0  0  0  0
 16 21  1  0  0  0  0
 17 20  2  0  0  0  0
 17 38  1  0  0  0  0
 19 39  1  0  0  0  0
 20 40  1  0  0  0  0
 21 22  2  0  0  0  0
 21 42  1  0  0  0  0
 22 23  1  0  0  0  0
 22 43  1  0  0  0  0
 23 44  1  0  0  0  0
M  END
> <PUBCHEM_COMPOUND_CID>
11645208

> <PUBCHEM_CONFORMER_RMSD>
0.8

> <PUBCHEM_CONFORMER_DIVERSEORDER>
1
77
70
8
48
39
85
9
57
92
69
14
72
76
93
34
73
10
7
27
84
88
90
22
15
20
5
81
65
6
59
3
42
35
56
36
2
63
66
71
32
68
16
21
79
30
25
45
80
29
91
28
12
60
41
46
83
4
37
52
82
64
87
11
51
58
17
86
33
38
23
24
78
13
54
67
26
94
47
89
44
40
74
19
31
75
18
49
55
50
43
61
62
53

> <PUBCHEM_MMFF94_PARTIAL_CHARGES>
24
1 -0.87
12 0.37
13 0.72
14 0.36
15 -0.05
17 -0.15
18 0.11
19 -0.3
2 -0.62
20 0.16
21 -0.15
22 -0.15
23 0.16
3 -0.62
37 0.4
38 0.15
39 0.15
4 0.03
40 0.15
41 0.27
42 0.15
43 0.15
44 0.15
5 -0.57

> <PUBCHEM_EFFECTIVE_ROTOR_COUNT>
5.2

> <PUBCHEM_PHARMACOPHORE_FEATURES>
10
1 1 donor
1 2 acceptor
1 4 cation
1 4 donor
1 5 acceptor
4 1 2 3 13 cation
5 4 15 16 18 19 rings
6 2 3 13 14 17 20 rings
6 5 16 18 21 22 23 rings
6 6 7 8 9 10 11 rings

> <PUBCHEM_HEAVY_ATOM_COUNT>
23

> <PUBCHEM_ATOM_DEF_STEREO_COUNT>
0

> <PUBCHEM_ATOM_UDEF_STEREO_COUNT>
0

> <PUBCHEM_BOND_DEF_STEREO_COUNT>
0

> <PUBCHEM_BOND_UDEF_STEREO_COUNT>
0

> <PUBCHEM_ISOTOPIC_ATOM_COUNT>
0

> <PUBCHEM_COMPONENT_COUNT>
1

> <PUBCHEM_CACTVS_TAUTO_COUNT>
9

> <PUBCHEM_CONFORMER_ID>
00B1B11800000001

> <PUBCHEM_MMFF94_ENERGY>
46.663

> <PUBCHEM_FEATURE_SELFOVERLAP>
50.859

> <PUBCHEM_SHAPE_FINGERPRINT>
10411042 1 17474106497423846591
10670039 82 17327475017222209292
10871710 139 16967184886019940917
11370993 70 18410570716924380297
11725454 13 17676757696255791611
12100795 323 18189333635655791077
12403260 363 18411410739476175571
12633257 1 18114453457777167264
12769317 202 18265882584711829789
12788726 201 17758943110429164282
12978246 48 18337956812757311697
13402501 40 18188770544115933933
13583140 156 17894916247376411691
13590594 115 17330279364172089291
138480 1 17906735804159113567
14251764 38 18408884040507225289
14466204 15 18336539426790060786
14468879 13 18260832643837903593
14790565 3 17830461944793101892
14957384 54 18261947548438758962
15003188 8 18265036093839495208
15081414 286 18124608482699226489
17093844 170 18266173920923058584
19930381 70 18410292476501103165
20028762 73 18129652015919765590
20567600 299 18269269071677183753
20621476 13 18337955558584273076
20775438 99 16764187487887019903
21197605 99 18337678615658247179
21860390 5 18198345043904304583
22749437 52 18409732889079891281
23227448 37 18411418449322176287
23559900 14 18340483353054428299
238 59 18411694366516006779
25265897 201 17772773593002074997
26353 1 16836597577980003983
3014063 31 17545041502900331525
3117164 225 18267566083618051536
350125 39 18194693776225864275
469060 322 16823353385071598938
474 4 18339358561708083739
5081480 168 17413062840062034279
54672768 99 18408324384445989228
5939293 188 18193274096371966090
6328613 192 18260837025190244628
6443956 14 18049726221862503324
9981440 41 18337666511960288275

> <PUBCHEM_SHAPE_MULTIPOLES>
448.42
9.18
4.79
0.94
6.55
1.24
0.06
-6.76
-1.35
-2.25
-0.65
0.89
0.13
0.66

> <PUBCHEM_SHAPE_SELFOVERLAP>
978.249

> <PUBCHEM_SHAPE_VOLUME>
238

> <PUBCHEM_COORDINATE_TYPE>
2
5
10

$$$$
