44375974
  -OEChem-10062121593D

 64 69  0     0  0  0  0  0  0999 V2000
    0.6472   -2.4040    1.8860 S   0  0  0  0  0  0  0  0  0  0  0  0
   -5.4643    1.3668   -0.8460 S   0  0  0  0  0  0  0  0  0  0  0  0
    3.9186    0.7664    2.6418 O   0  0  0  0  0  0  0  0  0  0  0  0
    5.0667   -1.5713   -1.1283 O   0  0  0  0  0  0  0  0  0  0  0  0
    1.9519   -1.9083   -1.9687 O   0  0  0  0  0  0  0  0  0  0  0  0
   -0.7573    1.0809    1.3959 N   0  0  0  0  0  0  0  0  0  0  0  0
    4.8663   -0.4530    0.9035 N   0  0  0  0  0  0  0  0  0  0  0  0
   -8.0447    1.0842   -1.3004 N   0  0  0  0  0  0  0  0  0  0  0  0
   -7.2668    0.2485    0.7668 N   0  0  0  0  0  0  0  0  0  0  0  0
    0.2014    0.1562    1.0791 C   0  0  0  0  0  0  0  0  0  0  0  0
    1.4067    0.8123    0.9805 C   0  0  0  0  0  0  0  0  0  0  0  0
   -0.1926    2.3317    1.5049 C   0  0  0  0  0  0  0  0  0  0  0  0
    1.1727    2.1904    1.2476 C   0  0  0  0  0  0  0  0  0  0  0  0
   -2.1655    0.7982    1.5938 C   0  0  0  0  0  0  0  0  0  0  0  0
    2.6879    0.1857    0.6582 C   0  0  0  0  0  0  0  0  0  0  0  0
   -0.0910   -1.2233    0.9029 C   0  0  0  0  0  0  0  0  0  0  0  0
   -3.0035    1.2165    0.3820 C   0  0  0  0  0  0  0  0  0  0  0  0
   -0.7801    3.5651    1.8087 C   0  0  0  0  0  0  0  0  0  0  0  0
    1.9939    3.3344    1.2953 C   0  0  0  0  0  0  0  0  0  0  0  0
    3.0385   -0.4947   -0.4444 C   0  0  0  0  0  0  0  0  0  0  0  0
   -0.9479   -1.7801   -0.0166 C   0  0  0  0  0  0  0  0  0  0  0  0
    3.8752    0.2280    1.5486 C   0  0  0  0  0  0  0  0  0  0  0  0
    0.0542    4.6859    1.8501 C   0  0  0  0  0  0  0  0  0  0  0  0
   -4.4749    0.8706    0.5936 C   0  0  0  0  0  0  0  0  0  0  0  0
    1.4200    4.5747    1.5979 C   0  0  0  0  0  0  0  0  0  0  0  0
   -1.0124   -3.2110    0.0750 C   0  0  0  0  0  0  0  0  0  0  0  0
   -0.1772   -3.6914    1.0884 C   0  0  0  0  0  0  0  0  0  0  0  0
    4.4438   -0.9252   -0.3036 C   0  0  0  0  0  0  0  0  0  0  0  0
    2.1988   -0.7534   -1.6084 C   0  0  0  0  0  0  0  0  0  0  0  0
   -1.7616   -4.1491   -0.6759 C   0  0  0  0  0  0  0  0  0  0  0  0
   -0.0734   -5.0686    1.3663 C   0  0  0  0  0  0  0  0  0  0  0  0
    1.6507    0.3931   -2.3873 C   0  0  0  0  0  0  0  0  0  0  0  0
   -1.6608   -5.5158   -0.4028 C   0  0  0  0  0  0  0  0  0  0  0  0
   -0.8250   -5.9685    0.6082 C   0  0  0  0  0  0  0  0  0  0  0  0
    2.3587    1.5930   -2.4547 C   0  0  0  0  0  0  0  0  0  0  0  0
    0.4303    0.2652   -3.0503 C   0  0  0  0  0  0  0  0  0  0  0  0
   -7.0736    0.8303   -0.3735 C   0  0  0  0  0  0  0  0  0  0  0  0
    1.8461    2.6652   -3.1852 C   0  0  0  0  0  0  0  0  0  0  0  0
   -0.0823    1.3371   -3.7807 C   0  0  0  0  0  0  0  0  0  0  0  0
    0.6256    2.5373   -3.8482 C   0  0  0  0  0  0  0  0  0  0  0  0
   -2.4846    1.3487    2.4874 H   0  0  0  0  0  0  0  0  0  0  0  0
   -2.3048   -0.2599    1.8321 H   0  0  0  0  0  0  0  0  0  0  0  0
   -2.6267    0.7265   -0.5229 H   0  0  0  0  0  0  0  0  0  0  0  0
   -2.8999    2.2953    0.2127 H   0  0  0  0  0  0  0  0  0  0  0  0
   -1.8411    3.6640    2.0104 H   0  0  0  0  0  0  0  0  0  0  0  0
    3.0600    3.2679    1.0980 H   0  0  0  0  0  0  0  0  0  0  0  0
   -1.5054   -1.2087   -0.7472 H   0  0  0  0  0  0  0  0  0  0  0  0
   -0.3704    5.6589    2.0836 H   0  0  0  0  0  0  0  0  0  0  0  0
   -4.8542    1.3848    1.4832 H   0  0  0  0  0  0  0  0  0  0  0  0
   -4.5811   -0.2090    0.7452 H   0  0  0  0  0  0  0  0  0  0  0  0
    2.0484    5.4605    1.6353 H   0  0  0  0  0  0  0  0  0  0  0  0
    5.7985   -0.5923    1.2763 H   0  0  0  0  0  0  0  0  0  0  0  0
   -2.4206   -3.8093   -1.4711 H   0  0  0  0  0  0  0  0  0  0  0  0
    0.5785   -5.4320    2.1558 H   0  0  0  0  0  0  0  0  0  0  0  0
   -2.2407   -6.2256   -0.9861 H   0  0  0  0  0  0  0  0  0  0  0  0
   -0.7532   -7.0331    0.8133 H   0  0  0  0  0  0  0  0  0  0  0  0
    3.3191    1.7189   -1.9628 H   0  0  0  0  0  0  0  0  0  0  0  0
   -0.1357   -0.6614   -3.0078 H   0  0  0  0  0  0  0  0  0  0  0  0
    2.3985    3.5987   -3.2400 H   0  0  0  0  0  0  0  0  0  0  0  0
   -1.0331    1.2379   -4.2961 H   0  0  0  0  0  0  0  0  0  0  0  0
    0.2265    3.3719   -4.4171 H   0  0  0  0  0  0  0  0  0  0  0  0
   -9.0108    0.8205   -1.1402 H   0  0  0  0  0  0  0  0  0  0  0  0
   -7.8274    1.5446   -2.1776 H   0  0  0  0  0  0  0  0  0  0  0  0
   -8.2617    0.0141    0.8542 H   0  0  0  0  0  0  0  0  0  0  0  0
  1 16  1  0  0  0  0
  1 27  1  0  0  0  0
  2 24  1  0  0  0  0
  2 37  1  0  0  0  0
  3 22  2  0  0  0  0
  4 28  2  0  0  0  0
  5 29  2  0  0  0  0
  6 10  1  0  0  0  0
  6 12  1  0  0  0  0
  6 14  1  0  0  0  0
  7 22  1  0  0  0  0
  7 28  1  0  0  0  0
  7 52  1  0  0  0  0
  8 37  1  0  0  0  0
  8 62  1  0  0  0  0
  8 63  1  0  0  0  0
  9 37  2  0  0  0  0
  9 64  1  0  0  0  0
 10 11  2  0  0  0  0
 10 16  1  0  0  0  0
 11 13  1  0  0  0  0
 11 15  1  0  0  0  0
 12 13  1  0  0  0  0
 12 18  2  0  0  0  0
 13 19  2  0  0  0  0
 14 17  1  0  0  0  0
 14 41  1  0  0  0  0
 14 42  1  0  0  0  0
 15 20  2  0  0  0  0
 15 22  1  0  0  0  0
 16 21  2  0  0  0  0
 17 24  1  0  0  0  0
 17 43  1  0  0  0  0
 17 44  1  0  0  0  0
 18 23  1  0  0  0  0
 18 45  1  0  0  0  0
 19 25  1  0  0  0  0
 19 46  1  0  0  0  0
 20 28  1  0  0  0  0
 20 29  1  0  0  0  0
 21 26  1  0  0  0  0
 21 47  1  0  0  0  0
 23 25  2  0  0  0  0
 23 48  1  0  0  0  0
 24 49  1  0  0  0  0
 24 50  1  0  0  0  0
 25 51  1  0  0  0  0
 26 27  1  0  0  0  0
 26 30  2  0  0  0  0
 27 31  2  0  0  0  0
 29 32  1  0  0  0  0
 30 33  1  0  0  0  0
 30 53  1  0  0  0  0
 31 34  1  0  0  0  0
 31 54  1  0  0  0  0
 32 35  2  0  0  0  0
 32 36  1  0  0  0  0
 33 34  2  0  0  0  0
 33 55  1  0  0  0  0
 34 56  1  0  0  0  0
 35 38  1  0  0  0  0
 35 57  1  0  0  0  0
 36 39  2  0  0  0  0
 36 58  1  0  0  0  0
 38 40  2  0  0  0  0
 38 59  1  0  0  0  0
 39 40  1  0  0  0  0
 39 60  1  0  0  0  0
 40 61  1  0  0  0  0
M  END
> <PUBCHEM_COMPOUND_CID>
44375974

> <PUBCHEM_CONFORMER_RMSD>
1

> <PUBCHEM_CONFORMER_DIVERSEORDER>
1
33
193
96
68
121
137
214
75
64
130
89
65
112
41
103
146
194
199
215
115
200
120
100
217
163
136
32
140
111
7
84
155
156
44
15
43
38
11
69
174
189
128
92
229
133
81
109
24
83
2
16
227
178
197
138
169
183
37
57
47
123
31
8
106
177
42
148
122
110
49
152
97
9
226
125
190
134
71
195
188
228
205
202
26
210
151
39
114
102
154
161
14
168
40
203
88
201
73
116
52
119
90
158
157
187
80
126
171
72
117
184
48
213
61
220
29
30
4
87
104
175
153
101
91
99
145
141
198
62
206
143
167
20
19
22
180
135
70
12
60
186
207
78
132
164
170
3
107
63
55
54
196
23
6
142
5
147
185
46
59
144
66
79
160
192
35
18
95
216
212
225
150
165
127
10
50
85
82
67
166
172
118
53
129
94
105
56
181
124
211
21
93
223
51
113
191
76
58
182
209
224
77
204
219
36
27
74
28
149
17
45
159
218
139
34
108
131
162
25
179
13
176
98
222
86
221
173
208

> <PUBCHEM_MMFF94_PARTIAL_CHARGES>
55
1 -0.08
10 -0.15
11 -0.05
12 -0.15
14 0.26
15 0.06
16 0.04
18 -0.15
19 -0.15
2 -0.37
20 0.03
21 -0.15
22 0.62
23 -0.15
24 0.23
25 -0.15
27 0.04
28 0.62
29 0.47
3 -0.57
30 -0.15
31 -0.15
32 0.09
33 -0.15
34 -0.15
35 -0.15
36 -0.15
37 0.64
38 -0.15
39 -0.15
4 -0.57
40 -0.15
45 0.15
46 0.15
47 0.15
48 0.15
5 -0.57
51 0.15
52 0.37
53 0.15
54 0.15
55 0.15
56 0.15
57 0.15
58 0.15
59 0.15
6 0.05
60 0.15
61 0.15
62 0.4
63 0.4
64 0.4
7 -0.49
8 -0.85
9 -0.85

> <PUBCHEM_EFFECTIVE_ROTOR_COUNT>
9.2

> <PUBCHEM_PHARMACOPHORE_FEATURES>
14
1 3 acceptor
1 4 acceptor
1 5 acceptor
1 6 cation
1 7 donor
1 8 donor
1 9 donor
3 8 9 37 cation
5 1 16 21 26 27 rings
5 6 10 11 12 13 rings
5 7 15 20 22 28 rings
6 12 13 18 19 23 25 rings
6 26 27 30 31 33 34 rings
6 32 35 36 38 39 40 rings

> <PUBCHEM_HEAVY_ATOM_COUNT>
40

> <PUBCHEM_ATOM_DEF_STEREO_COUNT>
0

> <PUBCHEM_ATOM_UDEF_STEREO_COUNT>
0

> <PUBCHEM_BOND_DEF_STEREO_COUNT>
0

> <PUBCHEM_BOND_UDEF_STEREO_COUNT>
0

> <PUBCHEM_ISOTOPIC_ATOM_COUNT>
0

> <PUBCHEM_COMPONENT_COUNT>
1

> <PUBCHEM_CACTVS_TAUTO_COUNT>
3

> <PUBCHEM_CONFORMER_ID>
02A51FA600000001

> <PUBCHEM_MMFF94_ENERGY>
97.389

> <PUBCHEM_FEATURE_SELFOVERLAP>
71.238

> <PUBCHEM_SHAPE_FINGERPRINT>
11421498 54 18196380212884220021
11578080 2 18116994601285766268
12058002 1 17464009806551741329
12156800 1 17613438165631448709
12608794 3 17831534921183963072
12728209 29 18264222447541630611
13642711 20 17980444942072170876
15219462 58 17477730535082794752
15439362 3 18198894993404060977
17980427 23 15228176452485810626
17980427 26 17261873248961544788
19319366 153 18410856521856184983
23419403 2 17398909119494235168
25223398 141 18042410295699947883
3178227 256 18411703188753328129
3380486 77 18341901770399718160
3493558 16 17034690450685074389
57527306 92 16008751294883022036
57527452 28 18041561334640701482
5895379 119 16740833851801136582

> <PUBCHEM_SHAPE_MULTIPOLES>
793.35
9.59
7.2
3.42
21.93
8.91
-3.63
-4.5
-1.31
2.23
2.78
-2.45
-3.34
0.36

> <PUBCHEM_SHAPE_SELFOVERLAP>
1749.876

> <PUBCHEM_SHAPE_VOLUME>
431.3

> <PUBCHEM_COORDINATE_TYPE>
2
5
10

$$$$
