49830470
  -OEChem-10062121533D

 49 53  0     0  0  0  0  0  0999 V2000
    5.0228   -1.7906    0.3843 O   0  0  0  0  0  0  0  0  0  0  0  0
   -4.1920   -0.1876   -0.9656 N   0  0  0  0  0  0  0  0  0  0  0  0
    1.8394   -4.5920    0.4162 N   0  0  0  0  0  0  0  0  0  0  0  0
    2.7986   -3.6514    0.4157 N   0  0  0  0  0  0  0  0  0  0  0  0
    2.7345   -1.2825    0.1635 N   0  0  0  0  0  0  0  0  0  0  0  0
   -4.0822   -2.0459    0.1123 N   0  0  0  0  0  0  0  0  0  0  0  0
   -4.9123   -1.0811   -0.2683 N   0  0  0  0  0  0  0  0  0  0  0  0
    5.7659    5.6502   -0.3724 N   0  0  0  0  0  0  0  0  0  0  0  0
    0.7276   -2.7270    0.1086 C   0  0  0  0  0  0  0  0  0  0  0  0
    0.5736   -4.1029    0.2360 C   0  0  0  0  0  0  0  0  0  0  0  0
   -1.6621   -2.5414   -0.1542 C   0  0  0  0  0  0  0  0  0  0  0  0
   -0.4071   -1.9231   -0.0906 C   0  0  0  0  0  0  0  0  0  0  0  0
    2.1184   -2.5180    0.2287 C   0  0  0  0  0  0  0  0  0  0  0  0
   -2.8362   -1.7384   -0.3590 C   0  0  0  0  0  0  0  0  0  0  0  0
   -0.6681   -4.7393    0.1758 C   0  0  0  0  0  0  0  0  0  0  0  0
   -1.7882   -3.9256   -0.0232 C   0  0  0  0  0  0  0  0  0  0  0  0
   -4.8151    0.9876   -1.5189 C   0  0  0  0  0  0  0  0  0  0  0  0
   -2.8842   -0.5542   -1.0508 C   0  0  0  0  0  0  0  0  0  0  0  0
   -5.0639    2.0695   -0.4975 C   0  0  0  0  0  0  0  0  0  0  0  0
    4.1097   -0.9844    0.2414 C   0  0  0  0  0  0  0  0  0  0  0  0
   -6.1427    1.9657    0.3806 C   0  0  0  0  0  0  0  0  0  0  0  0
   -4.2144    3.1738   -0.4310 C   0  0  0  0  0  0  0  0  0  0  0  0
    4.4689    0.4519    0.1095 C   0  0  0  0  0  0  0  0  0  0  0  0
   -6.3720    2.9661    1.3252 C   0  0  0  0  0  0  0  0  0  0  0  0
   -4.4435    4.1742    0.5137 C   0  0  0  0  0  0  0  0  0  0  0  0
   -5.5225    4.0703    1.3917 C   0  0  0  0  0  0  0  0  0  0  0  0
    5.7217    0.8154   -0.3848 C   0  0  0  0  0  0  0  0  0  0  0  0
    3.5523    1.4365    0.4786 C   0  0  0  0  0  0  0  0  0  0  0  0
    6.0577    2.1633   -0.5098 C   0  0  0  0  0  0  0  0  0  0  0  0
    3.8885    2.7843    0.3537 C   0  0  0  0  0  0  0  0  0  0  0  0
    5.1411    3.1479   -0.1407 C   0  0  0  0  0  0  0  0  0  0  0  0
    5.4858    4.5288   -0.2685 C   0  0  0  0  0  0  0  0  0  0  0  0
   -0.2908   -0.8469   -0.1795 H   0  0  0  0  0  0  0  0  0  0  0  0
   -0.7637   -5.8146    0.2770 H   0  0  0  0  0  0  0  0  0  0  0  0
   -2.7646   -4.4037   -0.0772 H   0  0  0  0  0  0  0  0  0  0  0  0
   -5.7599    0.6798   -1.9842 H   0  0  0  0  0  0  0  0  0  0  0  0
   -4.1778    1.3579   -2.3311 H   0  0  0  0  0  0  0  0  0  0  0  0
   -2.1464    0.0357   -1.5773 H   0  0  0  0  0  0  0  0  0  0  0  0
    2.1167   -5.5570    0.5451 H   0  0  0  0  0  0  0  0  0  0  0  0
    2.0866   -0.5199   -0.0103 H   0  0  0  0  0  0  0  0  0  0  0  0
   -6.8160    1.1140    0.3368 H   0  0  0  0  0  0  0  0  0  0  0  0
   -3.3691    3.2660   -1.1076 H   0  0  0  0  0  0  0  0  0  0  0  0
   -7.2127    2.8859    2.0082 H   0  0  0  0  0  0  0  0  0  0  0  0
   -3.7817    5.0337    0.5660 H   0  0  0  0  0  0  0  0  0  0  0  0
   -5.7010    4.8493    2.1271 H   0  0  0  0  0  0  0  0  0  0  0  0
    6.4483    0.0642   -0.6832 H   0  0  0  0  0  0  0  0  0  0  0  0
    2.5803    1.1998    0.9007 H   0  0  0  0  0  0  0  0  0  0  0  0
    7.0377    2.4311   -0.8977 H   0  0  0  0  0  0  0  0  0  0  0  0
    3.1665    3.5407    0.6527 H   0  0  0  0  0  0  0  0  0  0  0  0
  1 20  2  0  0  0  0
  2  7  1  0  0  0  0
  2 17  1  0  0  0  0
  2 18  1  0  0  0  0
  3  4  1  0  0  0  0
  3 10  1  0  0  0  0
  3 39  1  0  0  0  0
  4 13  2  0  0  0  0
  5 13  1  0  0  0  0
  5 20  1  0  0  0  0
  5 40  1  0  0  0  0
  6  7  2  0  0  0  0
  6 14  1  0  0  0  0
  8 32  3  0  0  0  0
  9 10  2  0  0  0  0
  9 12  1  0  0  0  0
  9 13  1  0  0  0  0
 10 15  1  0  0  0  0
 11 12  2  0  0  0  0
 11 14  1  0  0  0  0
 11 16  1  0  0  0  0
 12 33  1  0  0  0  0
 14 18  2  0  0  0  0
 15 16  2  0  0  0  0
 15 34  1  0  0  0  0
 16 35  1  0  0  0  0
 17 19  1  0  0  0  0
 17 36  1  0  0  0  0
 17 37  1  0  0  0  0
 18 38  1  0  0  0  0
 19 21  2  0  0  0  0
 19 22  1  0  0  0  0
 20 23  1  0  0  0  0
 21 24  1  0  0  0  0
 21 41  1  0  0  0  0
 22 25  2  0  0  0  0
 22 42  1  0  0  0  0
 23 27  2  0  0  0  0
 23 28  1  0  0  0  0
 24 26  2  0  0  0  0
 24 43  1  0  0  0  0
 25 26  1  0  0  0  0
 25 44  1  0  0  0  0
 26 45  1  0  0  0  0
 27 29  1  0  0  0  0
 27 46  1  0  0  0  0
 28 30  2  0  0  0  0
 28 47  1  0  0  0  0
 29 31  2  0  0  0  0
 29 48  1  0  0  0  0
 30 31  1  0  0  0  0
 30 49  1  0  0  0  0
 31 32  1  0  0  0  0
M  END
> <PUBCHEM_COMPOUND_CID>
49830470

> <PUBCHEM_CONFORMER_RMSD>
0.8

> <PUBCHEM_CONFORMER_DIVERSEORDER>
1
27
64
78
86
119
120
65
105
83
110
50
58
94
59
134
45
44
57
131
11
98
54
41
28
117
84
114
51
129
22
111
95
72
60
15
101
109
90
70
93
61
99
49
92
125
79
38
33
97
52
130
96
48
73
88
87
128
26
55
106
19
81
56
132
85
108
75
8
30
25
53
133
76
82
126
5
46
31
104
112
74
47
40
102
29
21
121
124
6
63
35
115
32
116
67
91
68
107
23
123
77
62
34
113
36
9
12
16
71
4
122
20
103
3
66
24
39
80
69
127
100
2
37
42
118
43
7
14
17
89
18
13
10

> <PUBCHEM_MMFF94_PARTIAL_CHARGES>
46
1 -0.57
10 -0.15
11 0.05
12 -0.15
13 0.35
14 0.17
15 -0.15
16 -0.15
17 0.4
18 -0.3
19 -0.14
2 0.31
20 0.54
21 -0.15
22 -0.15
23 0.09
24 -0.15
25 -0.15
26 -0.15
27 -0.15
28 -0.15
29 -0.15
3 0.3
30 -0.15
31 0.07
32 0.48
33 0.15
34 0.15
35 0.15
38 0.15
39 0.27
4 -0.71
40 0.37
41 0.15
42 0.15
43 0.15
44 0.15
45 0.15
46 0.15
47 0.15
48 0.15
49 0.15
5 -0.49
6 -0.23
7 -0.42
8 -0.56

> <PUBCHEM_EFFECTIVE_ROTOR_COUNT>
6

> <PUBCHEM_PHARMACOPHORE_FEATURES>
9
1 1 acceptor
1 3 donor
1 5 donor
1 8 acceptor
5 2 6 7 14 18 rings
5 3 4 9 10 13 rings
6 19 21 22 24 25 26 rings
6 23 27 28 29 30 31 rings
6 9 10 11 12 15 16 rings

> <PUBCHEM_HEAVY_ATOM_COUNT>
32

> <PUBCHEM_ATOM_DEF_STEREO_COUNT>
0

> <PUBCHEM_ATOM_UDEF_STEREO_COUNT>
0

> <PUBCHEM_BOND_DEF_STEREO_COUNT>
0

> <PUBCHEM_BOND_UDEF_STEREO_COUNT>
0

> <PUBCHEM_ISOTOPIC_ATOM_COUNT>
0

> <PUBCHEM_COMPONENT_COUNT>
1

> <PUBCHEM_CACTVS_TAUTO_COUNT>
24

> <PUBCHEM_CONFORMER_ID>
02F85A4600000001

> <PUBCHEM_MMFF94_ENERGY>
72.9867

> <PUBCHEM_FEATURE_SELFOVERLAP>
45.764

> <PUBCHEM_SHAPE_FINGERPRINT>
100830 2 18342181025026328105
10675989 125 18411136892762127528
10917259 69 18410015477577076116
11101153 10 18341041923243695917
11408170 253 17397557879813532524
11479125 193 18410862074642017073
11761917 142 17980753055069353472
11828042 163 18341623560631854060
11828042 53 18121791792679418244
11973864 155 18270135564060008713
12107183 9 18189313789598191130
13885169 86 18268995289508879929
13944108 23 18197500619316926756
14251764 75 18410858750279098713
14429114 114 18339356469553056616
14664723 55 18187654660463255364
14790565 3 18410573972266549262
14849402 71 18193557757392402958
15320295 198 17613720311150688733
15320467 1 17977383068492611340
15400415 2 18337387244581404268
155225 5 18050004695100289340
15980000 95 17760642569682003834
16067689 134 17981899540195029148
16708801 149 18338776971079906353
16728433 281 18046639069129696876
16990350 14 18410853265975211720
16992779 147 18123481488029417641
19302320 297 18194120715908989467
20691028 202 18412824672901403545
22122407 14 18337957796500066275
3525247 154 17695628841851837176
3552219 110 17774727563263735291
3918712 181 18336815481455247029
4173938 77 17909564860609989265
437795 171 18261099764602518268
44575985 301 18272085037695905328
4487111 67 18193833971186994496
4756088 132 12571643372265139860
5047190 92 18411140260064057593
5104073 3 18042405721396890691
5223283 242 17483702021061281422
53794403 172 18267589017719661198
550186 72 18194117645741056599
57724786 102 18196368118214538607
5951187 136 18128827334727667566
6036956 94 17975422630670456068
6176135 31 18337945706114620840
6201320 215 17835515304534667592
7970288 3 9259824141624200430

> <PUBCHEM_SHAPE_MULTIPOLES>
617.81
17.77
8.87
0.94
0.73
1.24
0.03
27.92
-0.37
-3.68
-1.32
1.22
0.52
-2.9

> <PUBCHEM_SHAPE_SELFOVERLAP>
1379.289

> <PUBCHEM_SHAPE_VOLUME>
327

> <PUBCHEM_COORDINATE_TYPE>
2
5
10

$$$$
