44317768
  -OEChem-10062121583D

 39 42  0     0  0  0  0  0  0999 V2000
   -1.8289    4.6923    0.3966 Cl  0  0  0  0  0  0  0  0  0  0  0  0
    2.2860   -1.5812    0.8587 O   0  0  0  0  0  0  0  0  0  0  0  0
    2.4553    2.3331    0.1058 O   0  0  0  0  0  0  0  0  0  0  0  0
   -1.5428   -1.1102   -0.2142 N   0  0  0  0  0  0  0  0  0  0  0  0
    1.0299    0.4760   -0.1149 N   0  0  0  0  0  0  0  0  0  0  0  0
   -4.8202   -2.7997   -0.3101 N   0  0  0  0  0  0  0  0  0  0  0  0
   -1.4020    0.2510   -0.0762 C   0  0  0  0  0  0  0  0  0  0  0  0
   -2.6851    0.7923    0.0126 C   0  0  0  0  0  0  0  0  0  0  0  0
   -3.6136   -0.2928   -0.0768 C   0  0  0  0  0  0  0  0  0  0  0  0
   -2.8700   -1.4639   -0.2181 C   0  0  0  0  0  0  0  0  0  0  0  0
   -0.2442    1.0355   -0.0237 C   0  0  0  0  0  0  0  0  0  0  0  0
   -2.8192    2.1889    0.1608 C   0  0  0  0  0  0  0  0  0  0  0  0
   -0.4031    2.4161    0.1239 C   0  0  0  0  0  0  0  0  0  0  0  0
   -5.0137   -0.3894   -0.0515 C   0  0  0  0  0  0  0  0  0  0  0  0
   -1.6705    2.9863    0.2149 C   0  0  0  0  0  0  0  0  0  0  0  0
   -3.4704   -2.7110   -0.3338 C   0  0  0  0  0  0  0  0  0  0  0  0
   -5.5448   -1.6664   -0.1726 C   0  0  0  0  0  0  0  0  0  0  0  0
    2.2673    1.1310   -0.0477 C   0  0  0  0  0  0  0  0  0  0  0  0
    3.4609    0.2510   -0.1501 C   0  0  0  0  0  0  0  0  0  0  0  0
    3.4208   -1.0664    0.3067 C   0  0  0  0  0  0  0  0  0  0  0  0
    4.6324    0.7589   -0.7120 C   0  0  0  0  0  0  0  0  0  0  0  0
    4.5519   -1.8759    0.2017 C   0  0  0  0  0  0  0  0  0  0  0  0
    5.7635   -0.0507   -0.8173 C   0  0  0  0  0  0  0  0  0  0  0  0
    5.7233   -1.3679   -0.3603 C   0  0  0  0  0  0  0  0  0  0  0  0
    2.3373   -2.9369    1.2978 C   0  0  0  0  0  0  0  0  0  0  0  0
   -0.7760   -1.7627   -0.3006 H   0  0  0  0  0  0  0  0  0  0  0  0
   -3.8082    2.6344    0.2318 H   0  0  0  0  0  0  0  0  0  0  0  0
    0.4334    3.1009    0.1685 H   0  0  0  0  0  0  0  0  0  0  0  0
   -5.6528    0.4796    0.0557 H   0  0  0  0  0  0  0  0  0  0  0  0
    1.0415   -0.5306   -0.2552 H   0  0  0  0  0  0  0  0  0  0  0  0
   -2.9148   -3.6329   -0.4443 H   0  0  0  0  0  0  0  0  0  0  0  0
   -6.6207   -1.8136   -0.1612 H   0  0  0  0  0  0  0  0  0  0  0  0
    4.6835    1.7805   -1.0794 H   0  0  0  0  0  0  0  0  0  0  0  0
    4.5964   -2.9071    0.5340 H   0  0  0  0  0  0  0  0  0  0  0  0
    6.6752    0.3441   -1.2561 H   0  0  0  0  0  0  0  0  0  0  0  0
    6.6047   -1.9973   -0.4429 H   0  0  0  0  0  0  0  0  0  0  0  0
    1.3508   -3.1789    1.7072 H   0  0  0  0  0  0  0  0  0  0  0  0
    3.0594   -3.0720    2.1103 H   0  0  0  0  0  0  0  0  0  0  0  0
    2.5111   -3.6256    0.4640 H   0  0  0  0  0  0  0  0  0  0  0  0
  1 15  1  0  0  0  0
  2 20  1  0  0  0  0
  2 25  1  0  0  0  0
  3 18  2  0  0  0  0
  4  7  1  0  0  0  0
  4 10  1  0  0  0  0
  4 26  1  0  0  0  0
  5 11  1  0  0  0  0
  5 18  1  0  0  0  0
  5 30  1  0  0  0  0
  6 16  2  0  0  0  0
  6 17  1  0  0  0  0
  7  8  2  0  0  0  0
  7 11  1  0  0  0  0
  8  9  1  0  0  0  0
  8 12  1  0  0  0  0
  9 10  2  0  0  0  0
  9 14  1  0  0  0  0
 10 16  1  0  0  0  0
 11 13  2  0  0  0  0
 12 15  2  0  0  0  0
 12 27  1  0  0  0  0
 13 15  1  0  0  0  0
 13 28  1  0  0  0  0
 14 17  2  0  0  0  0
 14 29  1  0  0  0  0
 16 31  1  0  0  0  0
 17 32  1  0  0  0  0
 18 19  1  0  0  0  0
 19 20  1  0  0  0  0
 19 21  2  0  0  0  0
 20 22  2  0  0  0  0
 21 23  1  0  0  0  0
 21 33  1  0  0  0  0
 22 24  1  0  0  0  0
 22 34  1  0  0  0  0
 23 24  2  0  0  0  0
 23 35  1  0  0  0  0
 24 36  1  0  0  0  0
 25 37  1  0  0  0  0
 25 38  1  0  0  0  0
 25 39  1  0  0  0  0
M  END
> <PUBCHEM_COMPOUND_CID>
44317768

> <PUBCHEM_CONFORMER_RMSD>
0.8

> <PUBCHEM_CONFORMER_DIVERSEORDER>
3
6
10
7
12
4
15
5
1
14
11
8
13
2
16
9

> <PUBCHEM_MMFF94_PARTIAL_CHARGES>
34
1 -0.18
10 -0.15
11 0.12
12 -0.15
13 -0.15
14 -0.15
15 0.18
16 0.16
17 0.16
18 0.54
19 0.09
2 -0.36
20 0.08
21 -0.15
22 -0.15
23 -0.15
24 -0.15
25 0.28
26 0.27
27 0.15
28 0.15
29 0.15
3 -0.57
30 0.37
31 0.15
32 0.15
33 0.15
34 0.15
35 0.15
36 0.15
4 0.03
5 -0.55
6 -0.62
7 -0.15

> <PUBCHEM_EFFECTIVE_ROTOR_COUNT>
4

> <PUBCHEM_PHARMACOPHORE_FEATURES>
10
1 2 acceptor
1 3 acceptor
1 4 cation
1 4 donor
1 5 donor
1 6 acceptor
5 4 7 8 9 10 rings
6 19 20 21 22 23 24 rings
6 6 9 10 14 16 17 rings
6 7 8 11 12 13 15 rings

> <PUBCHEM_HEAVY_ATOM_COUNT>
25

> <PUBCHEM_ATOM_DEF_STEREO_COUNT>
0

> <PUBCHEM_ATOM_UDEF_STEREO_COUNT>
0

> <PUBCHEM_BOND_DEF_STEREO_COUNT>
0

> <PUBCHEM_BOND_UDEF_STEREO_COUNT>
0

> <PUBCHEM_ISOTOPIC_ATOM_COUNT>
0

> <PUBCHEM_COMPONENT_COUNT>
1

> <PUBCHEM_CACTVS_TAUTO_COUNT>
4

> <PUBCHEM_CONFORMER_ID>
02A43C4800000003

> <PUBCHEM_MMFF94_ENERGY>
79.9736

> <PUBCHEM_FEATURE_SELFOVERLAP>
50.933

> <PUBCHEM_SHAPE_FINGERPRINT>
10411042 1 18340487880572404855
10595046 47 18408328770488124932
10616163 171 18339643330698240422
11045515 52 18187080676586109725
11056379 131 18269001903136134116
12107183 9 17543346060481377634
12516196 113 18340204201882079255
12553582 1 18339910619419077815
12760667 363 18343300379665976159
12788726 201 18335978675680534219
13631057 29 18412263935061555992
138480 1 15457341429086870729
14178342 30 18265031562912378712
14347332 77 18409727344155383596
14767858 380 18188784958679937196
14790565 3 17547294397862612241
14866123 147 18270404885006797353
14931854 50 18260266352173722014
15042514 8 18412830157912289417
15196674 1 18409730630185205558
15250474 111 18190454970349884554
15352361 1 18411699915149588119
15537594 2 18408329890757528219
16087824 20 18339081477027544557
17492 89 18339361855848481150
17857418 61 18410572898651579206
17909252 39 18343304782102614690
20028762 73 18337105667222161450
21054139 6 18260550009605404018
21267235 1 18410863187106948535
21478907 32 18411136948507167777
21703447 108 18269541875262857608
21857420 4 15545107273114776054
221357 26 18412265043147443470
22393880 68 18338800001474983164
22950370 63 18339646745328830143
23522609 53 18124068768625332993
23559900 14 18339633538120246417
2871803 45 18334292093605212874
3004659 81 18187359969233448367
335352 9 18411981374069971629
3421961 26 18198340865091158945
350125 39 18410858720209286801
4214541 1 18338800009690761092
4409770 3 18264485097349913925
44880168 125 17274826822338512046
46194498 28 17168702084542057581
463206 1 18192432085287690579
465052 167 18201444717802265830
497634 4 18261678082143245988
5104073 3 18201997707995520832
5309563 4 18267024036764134755
6823239 73 18201144504151950104
77188 2 18268711787244983965
7970288 3 18268989954738213399

> <PUBCHEM_SHAPE_MULTIPOLES>
489.68
12.53
4.28
0.78
7.16
3.17
0.08
-8.35
-2.11
-4.05
0.78
0.46
-0.22
-1.3

> <PUBCHEM_SHAPE_SELFOVERLAP>
1088.957

> <PUBCHEM_SHAPE_VOLUME>
262.3

> <PUBCHEM_COORDINATE_TYPE>
2
5
10

$$$$
