49830333
  -OEChem-10062121533D

 43 46  0     0  0  0  0  0  0999 V2000
    1.9686   -5.0594    0.2147 Cl  0  0  0  0  0  0  0  0  0  0  0  0
   -1.9777   -1.9173   -0.2105 N   0  0  0  0  0  0  0  0  0  0  0  0
   -5.5050    2.4904    0.3093 N   0  0  0  0  0  0  0  0  0  0  0  0
    0.1852   -1.0025   -0.1025 N   0  0  0  0  0  0  0  0  0  0  0  0
    2.0833   -2.4734    0.1007 N   0  0  0  0  0  0  0  0  0  0  0  0
    4.2930    1.0026    0.0957 N   0  0  0  0  0  0  0  0  0  0  0  0
    3.4852    3.2665   -0.0634 N   0  0  0  0  0  0  0  0  0  0  0  0
   -2.6103   -0.6201   -0.3162 C   0  0  0  0  0  0  0  0  0  0  0  0
   -4.8293    1.1969    0.4057 C   0  0  0  0  0  0  0  0  0  0  0  0
   -2.6849    0.0319    1.0663 C   0  0  0  0  0  0  0  0  0  0  0  0
   -4.0010   -0.7817   -0.9328 C   0  0  0  0  0  0  0  0  0  0  0  0
   -3.4333    1.3634    1.0179 C   0  0  0  0  0  0  0  0  0  0  0  0
   -4.7509    0.5491   -0.9812 C   0  0  0  0  0  0  0  0  0  0  0  0
   -0.6114   -2.0915   -0.1069 C   0  0  0  0  0  0  0  0  0  0  0  0
   -0.1413   -3.3856   -0.0127 C   0  0  0  0  0  0  0  0  0  0  0  0
    1.5024   -1.2624    0.0027 C   0  0  0  0  0  0  0  0  0  0  0  0
    2.3793   -0.1294    0.0106 C   0  0  0  0  0  0  0  0  0  0  0  0
    2.0806    1.2563   -0.0727 C   0  0  0  0  0  0  0  0  0  0  0  0
    1.2286   -3.5173    0.0898 C   0  0  0  0  0  0  0  0  0  0  0  0
    3.2949    1.9343   -0.0170 C   0  0  0  0  0  0  0  0  0  0  0  0
    3.7480   -0.2551    0.1130 C   0  0  0  0  0  0  0  0  0  0  0  0
    0.9139    2.0291   -0.1905 C   0  0  0  0  0  0  0  0  0  0  0  0
    1.0535    3.4148   -0.2431 C   0  0  0  0  0  0  0  0  0  0  0  0
    2.3286    3.9603   -0.1768 C   0  0  0  0  0  0  0  0  0  0  0  0
   -2.0294    0.0242   -0.9899 H   0  0  0  0  0  0  0  0  0  0  0  0
   -5.4254    0.5506    1.0625 H   0  0  0  0  0  0  0  0  0  0  0  0
   -1.6815    0.2029    1.4727 H   0  0  0  0  0  0  0  0  0  0  0  0
   -3.1908   -0.6414    1.7712 H   0  0  0  0  0  0  0  0  0  0  0  0
   -4.5896   -1.5060   -0.3542 H   0  0  0  0  0  0  0  0  0  0  0  0
   -3.9169   -1.1917   -1.9468 H   0  0  0  0  0  0  0  0  0  0  0  0
   -2.8469    2.0838    0.4323 H   0  0  0  0  0  0  0  0  0  0  0  0
   -3.5123    1.7697    2.0338 H   0  0  0  0  0  0  0  0  0  0  0  0
   -5.7595    0.3787   -1.3777 H   0  0  0  0  0  0  0  0  0  0  0  0
   -4.2425    1.2216   -1.6849 H   0  0  0  0  0  0  0  0  0  0  0  0
   -2.5615   -2.6923    0.0886 H   0  0  0  0  0  0  0  0  0  0  0  0
   -6.4509    2.3581   -0.0463 H   0  0  0  0  0  0  0  0  0  0  0  0
   -5.6005    2.8973    1.2388 H   0  0  0  0  0  0  0  0  0  0  0  0
   -0.8007   -4.2458   -0.0191 H   0  0  0  0  0  0  0  0  0  0  0  0
    4.3963   -1.1172    0.1980 H   0  0  0  0  0  0  0  0  0  0  0  0
    5.2799    1.2116    0.1565 H   0  0  0  0  0  0  0  0  0  0  0  0
   -0.0743    1.5864   -0.2418 H   0  0  0  0  0  0  0  0  0  0  0  0
    0.1817    4.0537   -0.3340 H   0  0  0  0  0  0  0  0  0  0  0  0
    2.4558    5.0390   -0.2163 H   0  0  0  0  0  0  0  0  0  0  0  0
  1 19  1  0  0  0  0
  2  8  1  0  0  0  0
  2 14  1  0  0  0  0
  2 35  1  0  0  0  0
  3  9  1  0  0  0  0
  3 36  1  0  0  0  0
  3 37  1  0  0  0  0
  4 14  1  0  0  0  0
  4 16  2  0  0  0  0
  5 16  1  0  0  0  0
  5 19  2  0  0  0  0
  6 20  1  0  0  0  0
  6 21  1  0  0  0  0
  6 40  1  0  0  0  0
  7 20  1  0  0  0  0
  7 24  2  0  0  0  0
  8 10  1  0  0  0  0
  8 11  1  0  0  0  0
  8 25  1  0  0  0  0
  9 12  1  0  0  0  0
  9 13  1  0  0  0  0
  9 26  1  0  0  0  0
 10 12  1  0  0  0  0
 10 27  1  0  0  0  0
 10 28  1  0  0  0  0
 11 13  1  0  0  0  0
 11 29  1  0  0  0  0
 11 30  1  0  0  0  0
 12 31  1  0  0  0  0
 12 32  1  0  0  0  0
 13 33  1  0  0  0  0
 13 34  1  0  0  0  0
 14 15  2  0  0  0  0
 15 19  1  0  0  0  0
 15 38  1  0  0  0  0
 16 17  1  0  0  0  0
 17 18  1  0  0  0  0
 17 21  2  0  0  0  0
 18 20  2  0  0  0  0
 18 22  1  0  0  0  0
 21 39  1  0  0  0  0
 22 23  2  0  0  0  0
 22 41  1  0  0  0  0
 23 24  1  0  0  0  0
 23 42  1  0  0  0  0
 24 43  1  0  0  0  0
M  END
> <PUBCHEM_COMPOUND_CID>
49830333

> <PUBCHEM_CONFORMER_RMSD>
0.8

> <PUBCHEM_CONFORMER_DIVERSEORDER>
1
57
58
32
18
52
35
26
24
36
53
9
30
25
56
22
11
55
8
50
44
2
41
39
54
13
19
49
15
23
47
31
59
28
60
48
3
46
17
4
29
38
45
21
51
7
33
10
42
27
16
34
40
14
37
6
43
12
20
5

> <PUBCHEM_MMFF94_PARTIAL_CHARGES>
28
1 -0.18
14 0.41
15 -0.15
16 0.67
17 -0.05
19 0.49
2 -0.87
20 0.11
21 -0.3
22 -0.15
23 -0.15
24 0.16
3 -0.99
35 0.4
36 0.36
37 0.36
38 0.15
39 0.15
4 -0.62
40 0.27
41 0.15
42 0.15
43 0.15
5 -0.62
6 0.03
7 -0.57
8 0.37
9 0.27

> <PUBCHEM_EFFECTIVE_ROTOR_COUNT>
4.2

> <PUBCHEM_PHARMACOPHORE_FEATURES>
13
1 2 cation
1 2 donor
1 3 cation
1 3 donor
1 5 acceptor
1 6 cation
1 6 donor
1 7 acceptor
3 4 5 16 cation
5 6 17 18 20 21 rings
6 4 5 14 15 16 19 rings
6 7 18 20 22 23 24 rings
6 8 9 10 11 12 13 rings

> <PUBCHEM_HEAVY_ATOM_COUNT>
24

> <PUBCHEM_ATOM_DEF_STEREO_COUNT>
0

> <PUBCHEM_ATOM_UDEF_STEREO_COUNT>
0

> <PUBCHEM_BOND_DEF_STEREO_COUNT>
0

> <PUBCHEM_BOND_UDEF_STEREO_COUNT>
0

> <PUBCHEM_ISOTOPIC_ATOM_COUNT>
0

> <PUBCHEM_COMPONENT_COUNT>
1

> <PUBCHEM_CACTVS_TAUTO_COUNT>
9

> <PUBCHEM_CONFORMER_ID>
02F859BD00000001

> <PUBCHEM_MMFF94_ENERGY>
45.2486

> <PUBCHEM_FEATURE_SELFOVERLAP>
66.085

> <PUBCHEM_SHAPE_FINGERPRINT>
10411042 1 17761775061698747715
10670039 82 16461651473226389188
10937287 8 18266176317081890140
1100329 8 18338514244352782752
11370993 70 18267017443699009585
12107183 9 18191285274028758976
12173636 292 17978507864581997878
12403260 363 18194951057673278670
12633257 1 18334283280047517416
12978246 48 18193556907115193457
13009979 54 17629764461768389539
13134695 92 18048038476014848455
13140716 1 18410290354639267304
13583140 156 17604422019774681211
13590594 115 17762059835041270611
138480 1 18194402178027119407
13878862 14 17972861593849288877
14466204 15 18337378392700721352
14790565 3 18336553814920602380
15081414 286 18267587901096645119
15420108 30 18199446853809581794
16087824 20 17041763089449248685
16760501 71 18339089199056379153
19301679 30 16967167814259137099
19591789 44 18267029345664868390
19930381 70 18409163299486715021
20510252 161 17763466518482548874
20621476 13 18336826381865498333
20739085 24 18261112972027236476
21033648 144 18041829731621233709
21041028 32 17760364392363996198
21298829 104 18270678658864955849
21860390 5 18271808956274400007
22749437 52 18267865180012094489
23558518 356 17611742710453945546
24771293 8 18127953258066490858
3117164 225 17979615047791849136
335352 9 18410008884231960684
350125 39 18120944072626985531
3886686 26 17763708343106589288
474 4 18411134740830394835
5048184 11 18194405712959673629
5081480 168 17270361671231436087
58902169 19 17696725807317932733
6328613 192 18191872430360312036
6371009 1 18194941149378463957
9981440 41 18265889344826947467

> <PUBCHEM_SHAPE_MULTIPOLES>
465.89
9.03
5.94
0.8
11.13
3.21
0.03
-6.39
-0.02
-6.01
0.06
0.7
-0.06
-0.82

> <PUBCHEM_SHAPE_SELFOVERLAP>
1011.988

> <PUBCHEM_SHAPE_VOLUME>
253.5

> <PUBCHEM_COORDINATE_TYPE>
2
5
10

$$$$
