14983992
  -OEChem-10052115183D

 46 48  0     0  0  0  0  0  0999 V2000
   -7.3967    1.7599   -0.6879 Cl  0  0  0  0  0  0  0  0  0  0  0  0
   -2.8501   -3.8190   -0.2453 S   0  0  0  0  0  0  0  0  0  0  0  0
    2.2824   -0.4789    1.9570 O   0  0  0  0  0  0  0  0  0  0  0  0
    1.9079   -2.2138   -0.7828 O   0  0  0  0  0  0  0  0  0  0  0  0
    0.2065   -1.5153    0.6126 N   0  0  0  0  0  0  0  0  0  0  0  0
   -0.6001   -2.5699    0.2534 N   0  0  0  0  0  0  0  0  0  0  0  0
   -2.4613   -1.2130    0.6096 N   0  0  0  0  0  0  0  0  0  0  0  0
    2.2726   -0.1976    0.5432 C   0  0  0  0  0  0  0  0  0  0  0  0
    1.5948    1.1491    0.2677 C   0  0  0  0  0  0  0  0  0  0  0  0
    3.7159   -0.1915    0.0236 C   0  0  0  0  0  0  0  0  0  0  0  0
    1.4654   -1.4100    0.0384 C   0  0  0  0  0  0  0  0  0  0  0  0
    0.4663    1.1675   -0.5172 C   0  0  0  0  0  0  0  0  0  0  0  0
    4.7360   -0.3998    0.9205 C   0  0  0  0  0  0  0  0  0  0  0  0
    2.1432    2.2842    0.8163 C   0  0  0  0  0  0  0  0  0  0  0  0
    3.9284    0.0225   -1.3171 C   0  0  0  0  0  0  0  0  0  0  0  0
   -0.1502    2.3935   -0.7682 C   0  0  0  0  0  0  0  0  0  0  0  0
    6.0484   -0.3938    0.4477 C   0  0  0  0  0  0  0  0  0  0  0  0
    1.5266    3.5100    0.5655 C   0  0  0  0  0  0  0  0  0  0  0  0
    5.2407    0.0283   -1.7898 C   0  0  0  0  0  0  0  0  0  0  0  0
    0.3800    3.5646   -0.2268 C   0  0  0  0  0  0  0  0  0  0  0  0
    6.3006   -0.1798   -0.9074 C   0  0  0  0  0  0  0  0  0  0  0  0
   -1.9835   -2.4573    0.2140 C   0  0  0  0  0  0  0  0  0  0  0  0
   -3.6449   -0.4997    0.2981 C   0  0  0  0  0  0  0  0  0  0  0  0
   -4.5328   -1.0321   -0.6209 C   0  0  0  0  0  0  0  0  0  0  0  0
   -3.8867    0.7130    0.9199 C   0  0  0  0  0  0  0  0  0  0  0  0
   -5.6986   -0.3299   -0.9274 C   0  0  0  0  0  0  0  0  0  0  0  0
   -5.0524    1.4151    0.6135 C   0  0  0  0  0  0  0  0  0  0  0  0
   -5.9583    0.8938   -0.3103 C   0  0  0  0  0  0  0  0  0  0  0  0
    0.0422    0.3041   -1.0136 H   0  0  0  0  0  0  0  0  0  0  0  0
    4.5829   -0.5675    1.9807 H   0  0  0  0  0  0  0  0  0  0  0  0
    3.0303    2.2548    1.4410 H   0  0  0  0  0  0  0  0  0  0  0  0
    3.1131    0.1808   -2.0159 H   0  0  0  0  0  0  0  0  0  0  0  0
    1.5061   -0.0603    2.3659 H   0  0  0  0  0  0  0  0  0  0  0  0
   -0.0741   -0.9548    1.4081 H   0  0  0  0  0  0  0  0  0  0  0  0
   -1.0362    2.4383   -1.3951 H   0  0  0  0  0  0  0  0  0  0  0  0
    6.8744   -0.5552    1.1344 H   0  0  0  0  0  0  0  0  0  0  0  0
    1.9386    4.4217    0.9880 H   0  0  0  0  0  0  0  0  0  0  0  0
    5.4371    0.1938   -2.8451 H   0  0  0  0  0  0  0  0  0  0  0  0
   -0.0988    4.5192   -0.4242 H   0  0  0  0  0  0  0  0  0  0  0  0
    7.3224   -0.1754   -1.2754 H   0  0  0  0  0  0  0  0  0  0  0  0
   -0.1325   -3.4378    0.0125 H   0  0  0  0  0  0  0  0  0  0  0  0
   -1.8247   -0.6731    1.1866 H   0  0  0  0  0  0  0  0  0  0  0  0
   -4.3702   -1.9319   -1.1917 H   0  0  0  0  0  0  0  0  0  0  0  0
   -3.1875    1.1285    1.6402 H   0  0  0  0  0  0  0  0  0  0  0  0
   -6.3889   -0.7398   -1.6604 H   0  0  0  0  0  0  0  0  0  0  0  0
   -5.2416    2.3676    1.1021 H   0  0  0  0  0  0  0  0  0  0  0  0
  1 28  1  0  0  0  0
  2 22  2  0  0  0  0
  3  8  1  0  0  0  0
  3 33  1  0  0  0  0
  4 11  2  0  0  0  0
  5  6  1  0  0  0  0
  5 11  1  0  0  0  0
  5 34  1  0  0  0  0
  6 22  1  0  0  0  0
  6 41  1  0  0  0  0
  7 22  1  0  0  0  0
  7 23  1  0  0  0  0
  7 42  1  0  0  0  0
  8  9  1  0  0  0  0
  8 10  1  0  0  0  0
  8 11  1  0  0  0  0
  9 12  2  0  0  0  0
  9 14  1  0  0  0  0
 10 13  2  0  0  0  0
 10 15  1  0  0  0  0
 12 16  1  0  0  0  0
 12 29  1  0  0  0  0
 13 17  1  0  0  0  0
 13 30  1  0  0  0  0
 14 18  2  0  0  0  0
 14 31  1  0  0  0  0
 15 19  2  0  0  0  0
 15 32  1  0  0  0  0
 16 20  2  0  0  0  0
 16 35  1  0  0  0  0
 17 21  2  0  0  0  0
 17 36  1  0  0  0  0
 18 20  1  0  0  0  0
 18 37  1  0  0  0  0
 19 21  1  0  0  0  0
 19 38  1  0  0  0  0
 20 39  1  0  0  0  0
 21 40  1  0  0  0  0
 23 24  2  0  0  0  0
 23 25  1  0  0  0  0
 24 26  1  0  0  0  0
 24 43  1  0  0  0  0
 25 27  2  0  0  0  0
 25 44  1  0  0  0  0
 26 28  2  0  0  0  0
 26 45  1  0  0  0  0
 27 28  1  0  0  0  0
 27 46  1  0  0  0  0
M  END
> <PUBCHEM_COMPOUND_CID>
14983992

> <PUBCHEM_CONFORMER_RMSD>
1

> <PUBCHEM_CONFORMER_DIVERSEORDER>
4
30
29
26
6
98
58
74
62
59
66
82
61
86
9
37
49
77
46
69
79
99
84
104
70
24
57
51
23
17
90
47
45
85
92
14
22
101
5
1
19
27
20
102
95
35
73
18
94
87
50
64
12
42
100
91
16
44
8
43
72
103
13
21
15
34
68
11
60
96
32
81
54
71
28
78
83
76
63
7
41
75
56
48
52
39
67
25
3
36
38
2
53
88
40
33
55
97
80
10
31
65
89
93

> <PUBCHEM_MMFF94_PARTIAL_CHARGES>
46
1 -0.18
10 -0.14
11 0.57
12 -0.15
13 -0.15
14 -0.15
15 -0.15
16 -0.15
17 -0.15
18 -0.15
19 -0.15
2 -0.38
20 -0.15
21 -0.15
22 0.5
23 0.12
24 -0.15
25 -0.15
26 -0.15
27 -0.15
28 0.18
29 0.15
3 -0.68
30 0.15
31 0.15
32 0.15
33 0.4
34 0.37
35 0.15
36 0.15
37 0.15
38 0.15
39 0.15
4 -0.57
40 0.15
41 0.37
42 0.37
43 0.15
44 0.15
45 0.15
46 0.15
5 -0.43
6 -0.43
7 -0.55
8 0.63
9 -0.14

> <PUBCHEM_EFFECTIVE_ROTOR_COUNT>
8

> <PUBCHEM_PHARMACOPHORE_FEATURES>
10
1 2 acceptor
1 3 acceptor
1 3 donor
1 4 acceptor
1 5 donor
1 6 donor
1 7 donor
6 10 13 15 17 19 21 rings
6 23 24 25 26 27 28 rings
6 9 12 14 16 18 20 rings

> <PUBCHEM_HEAVY_ATOM_COUNT>
28

> <PUBCHEM_ATOM_DEF_STEREO_COUNT>
0

> <PUBCHEM_ATOM_UDEF_STEREO_COUNT>
0

> <PUBCHEM_BOND_DEF_STEREO_COUNT>
0

> <PUBCHEM_BOND_UDEF_STEREO_COUNT>
0

> <PUBCHEM_ISOTOPIC_ATOM_COUNT>
0

> <PUBCHEM_COMPONENT_COUNT>
1

> <PUBCHEM_CACTVS_TAUTO_COUNT>
6

> <PUBCHEM_CONFORMER_ID>
00E4A33800000004

> <PUBCHEM_MMFF94_ENERGY>
99.2943

> <PUBCHEM_FEATURE_SELFOVERLAP>
52.336

> <PUBCHEM_SHAPE_FINGERPRINT>
1100329 8 18409730698387880201
11273773 38 18334018310920607397
11479125 193 15649334266540915820
11513181 2 17840026574170788502
11646440 116 18271818921078373121
12011746 2 18411984641453426165
12107698 1 18195528314585106919
12166972 35 18202001079470813065
12633257 1 18335695057520319511
12788726 201 18260831454400961856
12838862 33 18336809919493502425
13402501 40 18335699416959818741
14068700 675 18131067117328619769
14117953 113 18412258403444703909
14931854 50 18270117908039732933
15064981 194 18341904026306781709
15081414 286 18269006314230810803
15183329 4 18411141320266488163
15238133 3 18187079572710403410
1601671 61 18411421708970095722
16087824 20 18336826381971649621
17492 89 17979071909836761107
18608769 82 18188220900730766555
18681886 176 18201710795347412011
19319366 153 17604143748970505378
21033648 29 17560791173723728714
21285901 2 18129673997789116494
21298829 104 18269556044982420081
21421861 104 17896028855045437826
22393880 68 18337670935713266443
23559900 14 18272083963357520529
23576562 1 18189903195842988397
335352 9 18410291419321671381
437815 12 17989213633545505964
58260988 393 14345791600584755231
59755656 215 18341892957347768069
6009941 240 17240209837104336002
6328613 192 18334862765931262940

> <PUBCHEM_SHAPE_MULTIPOLES>
555.26
15.41
3.72
1.2
9.64
0.2
0.08
1.83
3.82
2.3
-0.08
-0.99
0.05
0.24

> <PUBCHEM_SHAPE_SELFOVERLAP>
1183.38

> <PUBCHEM_SHAPE_VOLUME>
310.4

> <PUBCHEM_COORDINATE_TYPE>
2
5
10

$$$$
