49830484
  -OEChem-10062121553D

 45 47  0     1  0  0  0  0  0999 V2000
   -2.4328    1.9168   -0.3416 F   0  0  0  0  0  0  0  0  0  0  0  0
    6.4989    1.2761    1.4330 O   0  0  0  0  0  0  0  0  0  0  0  0
    0.7395   -2.8034    1.2111 O   0  0  0  0  0  0  0  0  0  0  0  0
    1.5353   -1.1769   -0.2375 N   0  0  0  0  0  0  0  0  0  0  0  0
   -7.3076    1.3906   -0.1714 N   0  0  0  0  0  0  0  0  0  0  0  0
    2.9116   -1.6184   -0.2456 C   0  0  2  0  0  0  0  0  0  0  0  0
    3.8620   -0.4537   -0.4212 C   0  0  0  0  0  0  0  0  0  0  0  0
    3.1214   -2.7068   -1.2964 C   0  0  0  0  0  0  0  0  0  0  0  0
    4.7539   -0.1217    0.5986 C   0  0  0  0  0  0  0  0  0  0  0  0
    0.5253   -1.8060    0.4997 C   0  0  0  0  0  0  0  0  0  0  0  0
    3.8456    0.2883   -1.6024 C   0  0  0  0  0  0  0  0  0  0  0  0
   -0.8161   -1.2563    0.3837 C   0  0  0  0  0  0  0  0  0  0  0  0
    5.6296    0.9520    0.4372 C   0  0  0  0  0  0  0  0  0  0  0  0
   -3.3895   -0.2015    0.1622 C   0  0  0  0  0  0  0  0  0  0  0  0
   -0.9929    0.0916    0.0713 C   0  0  0  0  0  0  0  0  0  0  0  0
   -1.9261   -2.0768    0.5856 C   0  0  0  0  0  0  0  0  0  0  0  0
    4.7210    1.3622   -1.7637 C   0  0  0  0  0  0  0  0  0  0  0  0
   -2.2795    0.6191   -0.0395 C   0  0  0  0  0  0  0  0  0  0  0  0
   -3.2126   -1.5494    0.4750 C   0  0  0  0  0  0  0  0  0  0  0  0
    5.6132    1.6940   -0.7439 C   0  0  0  0  0  0  0  0  0  0  0  0
   -4.7259    0.3413    0.0480 C   0  0  0  0  0  0  0  0  0  0  0  0
   -5.6109   -0.1733   -0.8929 C   0  0  0  0  0  0  0  0  0  0  0  0
   -5.1302    1.3800    0.8793 C   0  0  0  0  0  0  0  0  0  0  0  0
   -6.8789    0.3811   -0.9620 C   0  0  0  0  0  0  0  0  0  0  0  0
   -6.4197    1.8649    0.7311 C   0  0  0  0  0  0  0  0  0  0  0  0
    7.3654    2.3862    1.2025 C   0  0  0  0  0  0  0  0  0  0  0  0
    3.1059   -2.0818    0.7304 H   0  0  0  0  0  0  0  0  0  0  0  0
    1.2898   -0.4284   -0.8771 H   0  0  0  0  0  0  0  0  0  0  0  0
    2.4883   -3.5762   -1.0866 H   0  0  0  0  0  0  0  0  0  0  0  0
    4.1634   -3.0448   -1.3114 H   0  0  0  0  0  0  0  0  0  0  0  0
    2.8652   -2.3596   -2.3036 H   0  0  0  0  0  0  0  0  0  0  0  0
    4.7739   -0.6932    1.5232 H   0  0  0  0  0  0  0  0  0  0  0  0
    3.1558    0.0483   -2.4069 H   0  0  0  0  0  0  0  0  0  0  0  0
   -0.1576    0.7722   -0.0645 H   0  0  0  0  0  0  0  0  0  0  0  0
   -1.8099   -3.1303    0.8268 H   0  0  0  0  0  0  0  0  0  0  0  0
    4.7067    1.9400   -2.6833 H   0  0  0  0  0  0  0  0  0  0  0  0
   -4.0639   -2.2055    0.6413 H   0  0  0  0  0  0  0  0  0  0  0  0
    6.2649    2.5396   -0.9352 H   0  0  0  0  0  0  0  0  0  0  0  0
   -5.3352   -0.9796   -1.5652 H   0  0  0  0  0  0  0  0  0  0  0  0
   -4.4742    1.8074    1.6310 H   0  0  0  0  0  0  0  0  0  0  0  0
   -7.6062    0.0164   -1.6798 H   0  0  0  0  0  0  0  0  0  0  0  0
   -6.7843    2.6734    1.3561 H   0  0  0  0  0  0  0  0  0  0  0  0
    8.0436    2.1997    0.3629 H   0  0  0  0  0  0  0  0  0  0  0  0
    6.8023    3.3180    1.0823 H   0  0  0  0  0  0  0  0  0  0  0  0
    7.9874    2.5017    2.0962 H   0  0  0  0  0  0  0  0  0  0  0  0
  1 18  1  0  0  0  0
  2 13  1  0  0  0  0
  2 26  1  0  0  0  0
  3 10  2  0  0  0  0
  4  6  1  0  0  0  0
  4 10  1  0  0  0  0
  4 28  1  0  0  0  0
  5 24  2  0  0  0  0
  5 25  1  0  0  0  0
  6  7  1  0  0  0  0
  6  8  1  0  0  0  0
  6 27  1  0  0  0  0
  7  9  2  0  0  0  0
  7 11  1  0  0  0  0
  8 29  1  0  0  0  0
  8 30  1  0  0  0  0
  8 31  1  0  0  0  0
  9 13  1  0  0  0  0
  9 32  1  0  0  0  0
 10 12  1  0  0  0  0
 11 17  2  0  0  0  0
 11 33  1  0  0  0  0
 12 15  2  0  0  0  0
 12 16  1  0  0  0  0
 13 20  2  0  0  0  0
 14 18  2  0  0  0  0
 14 19  1  0  0  0  0
 14 21  1  0  0  0  0
 15 18  1  0  0  0  0
 15 34  1  0  0  0  0
 16 19  2  0  0  0  0
 16 35  1  0  0  0  0
 17 20  1  0  0  0  0
 17 36  1  0  0  0  0
 19 37  1  0  0  0  0
 20 38  1  0  0  0  0
 21 22  2  0  0  0  0
 21 23  1  0  0  0  0
 22 24  1  0  0  0  0
 22 39  1  0  0  0  0
 23 25  2  0  0  0  0
 23 40  1  0  0  0  0
 24 41  1  0  0  0  0
 25 42  1  0  0  0  0
 26 43  1  0  0  0  0
 26 44  1  0  0  0  0
 26 45  1  0  0  0  0
M  END
> <PUBCHEM_COMPOUND_CID>
49830484

> <PUBCHEM_CONFORMER_RMSD>
0.8

> <PUBCHEM_CONFORMER_DIVERSEORDER>
1
43
22
108
63
91
20
78
90
84
107
62
111
101
25
33
112
46
92
109
94
39
36
93
65
77
30
70
106
17
64
79
47
49
12
103
61
57
98
102
10
97
41
67
28
59
74
71
89
45
68
31
76
27
55
69
100
50
105
38
5
87
99
88
73
54
75
37
53
11
52
34
48
60
56
7
40
83
95
6
58
35
8
80
18
15
72
4
32
14
24
19
86
23
29
16
26
3
81
66
42
44
96
110
21
51
82
13
2
9
85
104

> <PUBCHEM_MMFF94_PARTIAL_CHARGES>
35
1 -0.19
10 0.54
11 -0.15
12 0.09
13 0.08
15 -0.15
16 -0.15
17 -0.15
18 0.19
19 -0.15
2 -0.36
20 -0.15
22 -0.15
23 -0.15
24 0.16
25 0.16
26 0.28
28 0.37
3 -0.57
32 0.15
33 0.15
34 0.15
35 0.15
36 0.15
37 0.15
38 0.15
39 0.15
4 -0.73
40 0.15
41 0.15
42 0.15
5 -0.62
6 0.44
7 -0.14
9 -0.15

> <PUBCHEM_EFFECTIVE_ROTOR_COUNT>
6

> <PUBCHEM_PHARMACOPHORE_FEATURES>
7
1 2 acceptor
1 3 acceptor
1 4 donor
1 5 acceptor
6 12 14 15 16 18 19 rings
6 5 21 22 23 24 25 rings
6 7 9 11 13 17 20 rings

> <PUBCHEM_HEAVY_ATOM_COUNT>
26

> <PUBCHEM_ATOM_DEF_STEREO_COUNT>
0

> <PUBCHEM_ATOM_UDEF_STEREO_COUNT>
1

> <PUBCHEM_BOND_DEF_STEREO_COUNT>
0

> <PUBCHEM_BOND_UDEF_STEREO_COUNT>
0

> <PUBCHEM_ISOTOPIC_ATOM_COUNT>
0

> <PUBCHEM_COMPONENT_COUNT>
1

> <PUBCHEM_CACTVS_TAUTO_COUNT>
2

> <PUBCHEM_CONFORMER_ID>
02F85A5400000001

> <PUBCHEM_MMFF94_ENERGY>
84.1818

> <PUBCHEM_FEATURE_SELFOVERLAP>
35.522

> <PUBCHEM_SHAPE_FINGERPRINT>
10 15 17095532807197524677
10319926 262 13695862598042233111
10622 236 13324642124008982644
10692045 39 14562525159040006752
10906281 52 18269290001717059059
117089 54 9222137844313685708
12616971 3 16515686679872064118
12633257 1 17168420580297231494
12895836 83 17775281681661427023
12895837 130 18129659845634583260
13617811 41 18334008394036695645
13673619 4 9583525317461304954
13685833 64 8790886280979598614
13955234 65 17896883140640440611
14123256 34 9007064573573411456
14211702 104 9942932579016769101
14216079 64 9655576301523218465
14251764 30 7925644301820982080
14461889 52 18040726887194184683
14528608 73 18060421304720421983
14790565 3 18193566558560776577
15183329 4 18408891741299723925
15238133 3 18188213221392375668
15348495 7 15068916298990582621
1577012 14 17604151536320530268
15840311 113 18192442870804951053
18222031 100 12535342368285773195
20511986 3 18408595951323272095
20554085 129 18058998571719776954
20715895 44 18334297582662899572
21150785 3 16630522951500391053
21298829 104 18411985758161390368
21365058 113 13973676252767123835
21585481 151 11746932070958239512
21792934 111 17604142606904440157
21859007 373 16806430414834582071
23016692 55 10159701313369193528
23516275 100 17702931669292932392
23559900 14 18263097556340523118
24771293 8 18410854377934333061
24771750 20 17975427016164388221
249057 25 17488188088642419506
2748736 6 18334575762988621045
2767999 5 18334011696443656685
3004659 81 18129102217009017902
312425 54 14562815499172361080
3472631 163 18408610279012327246
34797466 226 17060342933028778781
3504750 166 11314309460745314915
351380 3 10375871861593685076
3680242 22 18040718039371150096
4340502 62 16081376219973121675
44249763 50 17703214235042134306
445580 126 18259698986703321513
465052 167 8070028870161240826
5104073 3 18040440979452606443
5372103 7 16342558722278253904
543368 44 18343019983016206961
59682541 52 17203340970605350310
636775 72 18342173388331967456
9962374 69 7853278801266354832
9981440 41 18115029714009459178

> <PUBCHEM_SHAPE_MULTIPOLES>
506.09
20.45
2.67
1.28
2.95
0.86
-0.24
-16.8
0.47
-1.83
0.42
-1.5
-0.17
0.78

> <PUBCHEM_SHAPE_SELFOVERLAP>
1099.565

> <PUBCHEM_SHAPE_VOLUME>
277

> <PUBCHEM_COORDINATE_TYPE>
2
5
10

$$$$
