24905235
  -OEChem-10052115163D

 36 38  0     0  0  0  0  0  0999 V2000
    3.6375    0.2264    2.2176 F   0  0  0  0  0  0  0  0  0  0  0  0
    3.4914    0.1987   -2.5299 F   0  0  0  0  0  0  0  0  0  0  0  0
    5.7610    0.2081    0.8105 O   0  0  0  0  0  0  0  0  0  0  0  0
   -2.5781    1.0287    0.0281 N   0  0  0  0  0  0  0  0  0  0  0  0
   -1.2851    1.4003   -0.0138 N   0  0  0  0  0  0  0  0  0  0  0  0
   -3.9252   -0.9825    0.0818 N   0  0  0  0  0  0  0  0  0  0  0  0
   -2.5450   -2.9937    0.0517 N   0  0  0  0  0  0  0  0  0  0  0  0
   -0.1604   -2.9206   -0.0209 N   0  0  0  0  0  0  0  0  0  0  0  0
   -3.6088    2.0393    0.0538 C   0  0  0  0  0  0  0  0  0  0  0  0
   -2.7567   -0.3228    0.0418 C   0  0  0  0  0  0  0  0  0  0  0  0
   -1.4887   -0.8760    0.0062 C   0  0  0  0  0  0  0  0  0  0  0  0
   -0.6268    0.2360   -0.0271 C   0  0  0  0  0  0  0  0  0  0  0  0
   -3.5870    2.8979   -1.2133 C   0  0  0  0  0  0  0  0  0  0  0  0
   -3.5092    2.9134    1.3064 C   0  0  0  0  0  0  0  0  0  0  0  0
    0.8137    0.2281   -0.0716 C   0  0  0  0  0  0  0  0  0  0  0  0
   -1.4041   -2.2643    0.0122 C   0  0  0  0  0  0  0  0  0  0  0  0
    1.4736    0.2171   -1.3003 C   0  0  0  0  0  0  0  0  0  0  0  0
    1.5480    0.2317    1.1144 C   0  0  0  0  0  0  0  0  0  0  0  0
   -3.7180   -2.3171    0.0836 C   0  0  0  0  0  0  0  0  0  0  0  0
    2.9421    0.2241    1.0715 C   0  0  0  0  0  0  0  0  0  0  0  0
    2.8678    0.2094   -1.3432 C   0  0  0  0  0  0  0  0  0  0  0  0
    3.6021    0.2130   -0.1572 C   0  0  0  0  0  0  0  0  0  0  0  0
    5.0557    0.2050   -0.2022 C   0  0  0  0  0  0  0  0  0  0  0  0
   -4.5745    1.5205    0.0868 H   0  0  0  0  0  0  0  0  0  0  0  0
   -2.6609    3.4779   -1.2941 H   0  0  0  0  0  0  0  0  0  0  0  0
   -4.4259    3.6017   -1.2176 H   0  0  0  0  0  0  0  0  0  0  0  0
   -3.6667    2.2723   -2.1093 H   0  0  0  0  0  0  0  0  0  0  0  0
   -2.5802    3.4940    1.3226 H   0  0  0  0  0  0  0  0  0  0  0  0
   -3.5331    2.2989    2.2132 H   0  0  0  0  0  0  0  0  0  0  0  0
   -4.3465    3.6176    1.3537 H   0  0  0  0  0  0  0  0  0  0  0  0
    0.9161    0.2138   -2.2339 H   0  0  0  0  0  0  0  0  0  0  0  0
    1.0489    0.2396    2.0805 H   0  0  0  0  0  0  0  0  0  0  0  0
   -4.6114   -2.9313    0.1148 H   0  0  0  0  0  0  0  0  0  0  0  0
    0.7063   -2.4040   -0.0506 H   0  0  0  0  0  0  0  0  0  0  0  0
   -0.1440   -3.9317   -0.0151 H   0  0  0  0  0  0  0  0  0  0  0  0
    5.5235    0.1956   -1.2011 H   0  0  0  0  0  0  0  0  0  0  0  0
  1 20  1  0  0  0  0
  2 21  1  0  0  0  0
  3 23  2  0  0  0  0
  4  5  1  0  0  0  0
  4  9  1  0  0  0  0
  4 10  1  0  0  0  0
  5 12  2  0  0  0  0
  6 10  2  0  0  0  0
  6 19  1  0  0  0  0
  7 16  1  0  0  0  0
  7 19  2  0  0  0  0
  8 16  1  0  0  0  0
  8 34  1  0  0  0  0
  8 35  1  0  0  0  0
  9 13  1  0  0  0  0
  9 14  1  0  0  0  0
  9 24  1  0  0  0  0
 10 11  1  0  0  0  0
 11 12  1  0  0  0  0
 11 16  2  0  0  0  0
 12 15  1  0  0  0  0
 13 25  1  0  0  0  0
 13 26  1  0  0  0  0
 13 27  1  0  0  0  0
 14 28  1  0  0  0  0
 14 29  1  0  0  0  0
 14 30  1  0  0  0  0
 15 17  2  0  0  0  0
 15 18  1  0  0  0  0
 17 21  1  0  0  0  0
 17 31  1  0  0  0  0
 18 20  2  0  0  0  0
 18 32  1  0  0  0  0
 19 33  1  0  0  0  0
 20 22  1  0  0  0  0
 21 22  2  0  0  0  0
 22 23  1  0  0  0  0
 23 36  1  0  0  0  0
M  END
> <PUBCHEM_COMPOUND_CID>
24905235

> <PUBCHEM_CONFORMER_RMSD>
0.6

> <PUBCHEM_CONFORMER_DIVERSEORDER>
1
2
5
3
4

> <PUBCHEM_MMFF94_PARTIAL_CHARGES>
26
1 -0.19
10 0.11
12 0.23
15 0.05
16 0.41
17 -0.15
18 -0.15
19 0.47
2 -0.19
20 0.19
21 0.19
22 0.09
23 0.42
3 -0.57
31 0.15
32 0.15
33 0.15
34 0.4
35 0.4
36 0.06
4 0.31
5 -0.71
6 -0.57
7 -0.62
8 -0.9
9 0.26

> <PUBCHEM_EFFECTIVE_ROTOR_COUNT>
3

> <PUBCHEM_PHARMACOPHORE_FEATURES>
10
1 3 acceptor
1 5 acceptor
1 8 cation
1 8 donor
3 4 6 10 cation
3 6 7 19 cation
3 9 13 14 hydrophobe
5 4 5 10 11 12 rings
6 15 17 18 20 21 22 rings
6 6 7 10 11 16 19 rings

> <PUBCHEM_HEAVY_ATOM_COUNT>
23

> <PUBCHEM_ATOM_DEF_STEREO_COUNT>
0

> <PUBCHEM_ATOM_UDEF_STEREO_COUNT>
0

> <PUBCHEM_BOND_DEF_STEREO_COUNT>
0

> <PUBCHEM_BOND_UDEF_STEREO_COUNT>
0

> <PUBCHEM_ISOTOPIC_ATOM_COUNT>
0

> <PUBCHEM_COMPONENT_COUNT>
1

> <PUBCHEM_CACTVS_TAUTO_COUNT>
5

> <PUBCHEM_CONFORMER_ID>
017C061300000001

> <PUBCHEM_MMFF94_ENERGY>
50.5618

> <PUBCHEM_FEATURE_SELFOVERLAP>
51.025

> <PUBCHEM_SHAPE_FINGERPRINT>
10319926 262 18270665529549897706
10411042 1 17978228593377645051
11315181 36 18187642544465617664
11582403 64 16910821364458700016
11725454 13 17199910484972058176
12107183 9 17973996263868021842
12236239 1 17676485081427139630
12500047 106 18412539890783582762
12553582 1 18192438695569315827
12788726 201 18190758615773437171
13140716 1 18122631814965916651
13583140 156 17988912384539078642
13878862 14 16968017736853058449
14178342 30 18410293592511845283
14294032 229 18262798455224166237
14386348 63 17703518782572908558
15042514 8 18265618873926155403
15375358 24 17775564217737659036
15842332 3 17749111114449834382
16752209 62 18408601491720294271
16945 1 18410577323011206471
18186145 218 17917440782437189481
19049666 15 17845665762929862862
200 152 16660636397283730446
20510252 161 18343586278374625257
20554085 129 17984112921699935833
20645477 70 16343430501232562228
21033648 29 17346306107925344624
21065201 7 18412830187739404390
22112679 90 17967535691977127212
22182313 1 17703801318437865366
23402539 116 18341044220302424943
23557571 272 18202004343234773728
23559900 14 18200882764813812174
23598291 2 17603873329397213742
283562 15 18411979187604862419
312423 11 17822867492570653668
469060 322 18337127725988694577
5104073 3 18410852132145862202
5265222 85 18198915880636285398
559249 180 18334852767500579450
573450 72 18260824908480431634
57527295 17 17130988642425366101
602551 16 18412265073222673186
6049 1 17774734146108195464
7615 1 17822007648591962500
77492 1 17676205796841428526
81228 2 18338805632076849011
84936 182 17624129400314740529
9849439 229 17908985401072308321
9862522 239 17823127926724419997

> <PUBCHEM_SHAPE_MULTIPOLES>
428.01
9.62
2.94
1.4
8.6
0.79
0.19
-2.93
-0.72
-5.84
-0.07
1.51
-0.6
0.04

> <PUBCHEM_SHAPE_SELFOVERLAP>
944.973

> <PUBCHEM_SHAPE_VOLUME>
230.4

> <PUBCHEM_COORDINATE_TYPE>
2
5
10

$$$$
