44370224
  -OEChem-10062121593D

 65 71  0     1  0  0  0  0  0999 V2000
   -5.1947    4.7028   -0.7703 Br  0  0  0  0  0  0  0  0  0  0  0  0
   -2.0247   -1.8876    0.9257 O   0  0  0  0  0  0  0  0  0  0  0  0
   -3.6163    1.0191   -0.1622 O   0  0  0  0  0  0  0  0  0  0  0  0
   -5.5130   -1.0173    0.1673 O   0  0  0  0  0  0  0  0  0  0  0  0
   -1.3707    0.5925   -1.7205 O   0  0  0  0  0  0  0  0  0  0  0  0
   -3.2223   -2.9603    3.1515 O   0  0  0  0  0  0  0  0  0  0  0  0
    5.4623   -2.3693   -0.5511 O   0  0  0  0  0  0  0  0  0  0  0  0
    5.6798    2.2071    0.0033 O   0  0  0  0  0  0  0  0  0  0  0  0
   -4.7804    1.9563   -1.9149 O   0  0  0  0  0  0  0  0  0  0  0  0
    0.1063   -1.2660    0.0628 N   0  0  0  0  0  0  0  0  0  0  0  0
    0.2376    1.4940    0.3990 N   0  0  0  0  0  0  0  0  0  0  0  0
    5.9595   -0.0952   -0.3100 N   0  0  0  0  0  0  0  0  0  0  0  0
   -1.3344   -0.8304    0.2457 C   0  0  1  0  0  0  0  0  0  0  0  0
   -2.0137   -0.5168   -1.1001 C   0  0  1  0  0  0  0  0  0  0  0  0
   -3.4986   -0.2031   -0.8964 C   0  0  1  0  0  0  0  0  0  0  0  0
   -4.1555   -1.3386   -0.1087 C   0  0  1  0  0  0  0  0  0  0  0  0
   -3.3974   -1.5921    1.2012 C   0  0  1  0  0  0  0  0  0  0  0  0
    1.2949   -0.6218    0.0384 C   0  0  0  0  0  0  0  0  0  0  0  0
    2.5424   -1.3035   -0.1581 C   0  0  0  0  0  0  0  0  0  0  0  0
    0.5152   -2.5759   -0.1387 C   0  0  0  0  0  0  0  0  0  0  0  0
    1.3609    0.7662    0.2074 C   0  0  0  0  0  0  0  0  0  0  0  0
    1.9431   -2.6407   -0.2733 C   0  0  0  0  0  0  0  0  0  0  0  0
    2.6688    1.3556    0.1653 C   0  0  0  0  0  0  0  0  0  0  0  0
    3.7996   -0.7069   -0.1947 C   0  0  0  0  0  0  0  0  0  0  0  0
    3.8650    0.6703   -0.0275 C   0  0  0  0  0  0  0  0  0  0  0  0
   -3.9741   -2.7797    1.9655 C   0  0  0  0  0  0  0  0  0  0  0  0
    2.1983    2.7314    0.3803 C   0  0  0  0  0  0  0  0  0  0  0  0
   -0.2864   -3.7252   -0.2128 C   0  0  0  0  0  0  0  0  0  0  0  0
    0.7693    2.7700    0.5124 C   0  0  0  0  0  0  0  0  0  0  0  0
    2.5146   -3.9186   -0.4848 C   0  0  0  0  0  0  0  0  0  0  0  0
    5.1507   -1.2079   -0.3777 C   0  0  0  0  0  0  0  0  0  0  0  0
    5.2589    1.0723   -0.1013 C   0  0  0  0  0  0  0  0  0  0  0  0
    0.3273   -4.9607   -0.4230 C   0  0  0  0  0  0  0  0  0  0  0  0
    1.7061   -5.0581   -0.5570 C   0  0  0  0  0  0  0  0  0  0  0  0
    2.8891    3.9636    0.4740 C   0  0  0  0  0  0  0  0  0  0  0  0
   -6.3458   -1.2649   -0.9571 C   0  0  0  0  0  0  0  0  0  0  0  0
    0.0795    3.9733    0.7253 C   0  0  0  0  0  0  0  0  0  0  0  0
   -4.2890    2.0277   -0.7976 C   0  0  0  0  0  0  0  0  0  0  0  0
    2.1916    5.1577    0.6864 C   0  0  0  0  0  0  0  0  0  0  0  0
    0.8084    5.1603    0.8097 C   0  0  0  0  0  0  0  0  0  0  0  0
   -4.3124    3.2206    0.1165 C   0  0  0  0  0  0  0  0  0  0  0  0
   -1.3425   -0.0525    1.0016 H   0  0  0  0  0  0  0  0  0  0  0  0
   -1.9184   -1.3813   -1.7690 H   0  0  0  0  0  0  0  0  0  0  0  0
   -3.9587   -0.1210   -1.8865 H   0  0  0  0  0  0  0  0  0  0  0  0
   -4.0993   -2.2580   -0.7096 H   0  0  0  0  0  0  0  0  0  0  0  0
   -3.4393   -0.7149    1.8603 H   0  0  0  0  0  0  0  0  0  0  0  0
   -3.8931   -3.6992    1.3761 H   0  0  0  0  0  0  0  0  0  0  0  0
   -5.0214   -2.6136    2.2353 H   0  0  0  0  0  0  0  0  0  0  0  0
   -0.7379    1.3206    0.2717 H   0  0  0  0  0  0  0  0  0  0  0  0
   -1.8290    0.7645   -2.5606 H   0  0  0  0  0  0  0  0  0  0  0  0
   -1.3680   -3.7055   -0.1688 H   0  0  0  0  0  0  0  0  0  0  0  0
    3.5881   -4.0343   -0.5949 H   0  0  0  0  0  0  0  0  0  0  0  0
    6.9685   -0.1316   -0.4044 H   0  0  0  0  0  0  0  0  0  0  0  0
   -0.2838   -5.8567   -0.4945 H   0  0  0  0  0  0  0  0  0  0  0  0
    2.1643   -6.0295   -0.7229 H   0  0  0  0  0  0  0  0  0  0  0  0
    3.9699    4.0015    0.3827 H   0  0  0  0  0  0  0  0  0  0  0  0
   -7.3778   -1.0522   -0.6640 H   0  0  0  0  0  0  0  0  0  0  0  0
   -6.2891   -2.3151   -1.2603 H   0  0  0  0  0  0  0  0  0  0  0  0
   -6.0953   -0.6130   -1.7973 H   0  0  0  0  0  0  0  0  0  0  0  0
   -1.0007    3.9863    0.8262 H   0  0  0  0  0  0  0  0  0  0  0  0
   -3.6023   -3.7237    3.6189 H   0  0  0  0  0  0  0  0  0  0  0  0
    2.7408    6.0929    0.7554 H   0  0  0  0  0  0  0  0  0  0  0  0
    0.2849    6.0983    0.9750 H   0  0  0  0  0  0  0  0  0  0  0  0
   -3.2986    3.5492    0.3479 H   0  0  0  0  0  0  0  0  0  0  0  0
   -4.8834    3.0012    1.0208 H   0  0  0  0  0  0  0  0  0  0  0  0
  1 41  1  0  0  0  0
  2 13  1  0  0  0  0
  2 17  1  0  0  0  0
  3 15  1  0  0  0  0
  3 38  1  0  0  0  0
  4 16  1  0  0  0  0
  4 36  1  0  0  0  0
  5 14  1  0  0  0  0
  5 50  1  0  0  0  0
  6 26  1  0  0  0  0
  6 61  1  0  0  0  0
  7 31  2  0  0  0  0
  8 32  2  0  0  0  0
  9 38  2  0  0  0  0
 10 13  1  0  0  0  0
 10 18  1  0  0  0  0
 10 20  1  0  0  0  0
 11 21  1  0  0  0  0
 11 29  1  0  0  0  0
 11 49  1  0  0  0  0
 12 31  1  0  0  0  0
 12 32  1  0  0  0  0
 12 53  1  0  0  0  0
 13 14  1  0  0  0  0
 13 42  1  0  0  0  0
 14 15  1  0  0  0  0
 14 43  1  0  0  0  0
 15 16  1  0  0  0  0
 15 44  1  0  0  0  0
 16 17  1  0  0  0  0
 16 45  1  0  0  0  0
 17 26  1  0  0  0  0
 17 46  1  0  0  0  0
 18 19  1  0  0  0  0
 18 21  2  0  0  0  0
 19 22  1  0  0  0  0
 19 24  2  0  0  0  0
 20 22  1  0  0  0  0
 20 28  2  0  0  0  0
 21 23  1  0  0  0  0
 22 30  2  0  0  0  0
 23 25  2  0  0  0  0
 23 27  1  0  0  0  0
 24 25  1  0  0  0  0
 24 31  1  0  0  0  0
 25 32  1  0  0  0  0
 26 47  1  0  0  0  0
 26 48  1  0  0  0  0
 27 29  1  0  0  0  0
 27 35  2  0  0  0  0
 28 33  1  0  0  0  0
 28 51  1  0  0  0  0
 29 37  2  0  0  0  0
 30 34  1  0  0  0  0
 30 52  1  0  0  0  0
 33 34  2  0  0  0  0
 33 54  1  0  0  0  0
 34 55  1  0  0  0  0
 35 39  1  0  0  0  0
 35 56  1  0  0  0  0
 36 57  1  0  0  0  0
 36 58  1  0  0  0  0
 36 59  1  0  0  0  0
 37 40  1  0  0  0  0
 37 60  1  0  0  0  0
 38 41  1  0  0  0  0
 39 40  2  0  0  0  0
 39 62  1  0  0  0  0
 40 63  1  0  0  0  0
 41 64  1  0  0  0  0
 41 65  1  0  0  0  0
M  END
> <PUBCHEM_COMPOUND_CID>
44370224

> <PUBCHEM_CONFORMER_RMSD>
1

> <PUBCHEM_CONFORMER_DIVERSEORDER>
1
38
30
10
19
8
22
13
32
33
20
29
23
6
7
16
31
27
9
15
25
24
17
21
28
14
18
12
4
3
34
36
35
5
37
26
2
11

> <PUBCHEM_MMFF94_PARTIAL_CHARGES>
51
1 -0.23
10 -0.04
11 -0.05
12 -0.49
13 0.54
14 0.28
15 0.28
16 0.28
17 0.28
18 -0.05
19 -0.01
2 -0.56
20 -0.15
21 -0.05
23 -0.01
24 0.09
25 0.09
26 0.28
28 -0.15
29 -0.15
3 -0.43
30 -0.15
31 0.54
32 0.54
33 -0.15
34 -0.15
35 -0.15
36 0.28
37 -0.15
38 0.66
39 -0.15
4 -0.56
40 -0.15
41 0.29
49 0.27
5 -0.68
50 0.4
51 0.15
52 0.15
53 0.37
54 0.15
55 0.15
56 0.15
6 -0.68
60 0.15
61 0.4
62 0.15
63 0.15
7 -0.57
8 -0.57
9 -0.57

> <PUBCHEM_EFFECTIVE_ROTOR_COUNT>
7.4

> <PUBCHEM_PHARMACOPHORE_FEATURES>
21
1 1 hydrophobe
1 10 cation
1 11 cation
1 11 donor
1 12 donor
1 2 acceptor
1 4 acceptor
1 5 acceptor
1 5 donor
1 6 acceptor
1 6 donor
1 7 acceptor
1 8 acceptor
1 9 acceptor
5 10 18 19 20 22 rings
5 11 21 23 27 29 rings
5 12 24 25 31 32 rings
6 18 19 21 23 24 25 rings
6 2 13 14 15 16 17 rings
6 20 22 28 30 33 34 rings
6 27 29 35 37 39 40 rings

> <PUBCHEM_HEAVY_ATOM_COUNT>
41

> <PUBCHEM_ATOM_DEF_STEREO_COUNT>
0

> <PUBCHEM_ATOM_UDEF_STEREO_COUNT>
5

> <PUBCHEM_BOND_DEF_STEREO_COUNT>
0

> <PUBCHEM_BOND_UDEF_STEREO_COUNT>
0

> <PUBCHEM_ISOTOPIC_ATOM_COUNT>
0

> <PUBCHEM_COMPONENT_COUNT>
1

> <PUBCHEM_CACTVS_TAUTO_COUNT>
18

> <PUBCHEM_CONFORMER_ID>
02A5093000000001

> <PUBCHEM_MMFF94_ENERGY>
163.5794

> <PUBCHEM_FEATURE_SELFOVERLAP>
107.055

> <PUBCHEM_SHAPE_FINGERPRINT>
10439779 11 18337377284266875650
10675989 125 17760363293258257789
1100329 8 18125161786947333386
12107698 1 18272365404280363501
12440605 4 17766853727846012282
12788726 201 17905603298676816778
12925494 130 18339635643197800177
13140716 1 18266466412664833370
13402501 40 18334856138538067439
13911987 19 18337967774099368238
140371 6 17761765170457480906
14466204 15 18411693279641530280
14790565 3 18411139156125626372
15081414 286 18270977850834060432
15082195 135 18196906947926596615
15320467 1 18268145538207591941
15324884 4 17825655918583384575
15351339 4 17759791555992218233
15439362 3 18053658359033065240
15815584 197 18270133322234532750
15927050 60 17548429103222077254
21033648 29 18341884247101552408
22311459 1 18412260666618363295
23559900 14 18338228375597940105
3178227 256 18339090400824516723
350125 39 18337673134752170981

> <PUBCHEM_SHAPE_MULTIPOLES>
787.81
12.06
7.96
1.27
4.6
3.41
-0.6
2.63
2.56
-0.48
-1.21
1.87
-0.7
3.1

> <PUBCHEM_SHAPE_SELFOVERLAP>
1765.773

> <PUBCHEM_SHAPE_VOLUME>
425

> <PUBCHEM_COORDINATE_TYPE>
2
5
10

$$$$
