11524200
  -OEChem-10052115183D

 41 44  0     0  0  0  0  0  0999 V2000
   -7.8770    0.1364    0.6822 Cl  0  0  0  0  0  0  0  0  0  0  0  0
    1.0026    0.9614    0.7727 F   0  0  0  0  0  0  0  0  0  0  0  0
    1.0733   -3.7186    0.0010 F   0  0  0  0  0  0  0  0  0  0  0  0
    2.4177   -1.3904    0.5856 O   0  0  0  0  0  0  0  0  0  0  0  0
    5.4646    2.0762   -0.0485 N   0  0  0  0  0  0  0  0  0  0  0  0
    4.7564    0.9376   -2.0498 N   0  0  0  0  0  0  0  0  0  0  0  0
   -3.0864   -1.3441   -0.2071 N   0  0  0  0  0  0  0  0  0  0  0  0
   -3.6766    0.9410   -0.5216 N   0  0  0  0  0  0  0  0  0  0  0  0
   -5.9385    1.6628   -0.1098 N   0  0  0  0  0  0  0  0  0  0  0  0
   -4.2988    3.1830   -0.8211 N   0  0  0  0  0  0  0  0  0  0  0  0
    4.0037    0.4091    0.2234 C   0  0  0  0  0  0  0  0  0  0  0  0
    4.3095    0.9641    1.4943 C   0  0  0  0  0  0  0  0  0  0  0  0
    4.7398    1.1246   -0.7164 C   0  0  0  0  0  0  0  0  0  0  0  0
    3.1821   -0.6260   -0.2513 C   0  0  0  0  0  0  0  0  0  0  0  0
    5.2107    1.9878    1.2957 C   0  0  0  0  0  0  0  0  0  0  0  0
    3.7691    0.5352    2.7999 C   0  0  0  0  0  0  0  0  0  0  0  0
    3.1612   -0.8627   -1.6247 C   0  0  0  0  0  0  0  0  0  0  0  0
    1.0499   -1.3787    0.3887 C   0  0  0  0  0  0  0  0  0  0  0  0
    3.9474   -0.0706   -2.4506 C   0  0  0  0  0  0  0  0  0  0  0  0
   -1.6909   -1.3556   -0.0043 C   0  0  0  0  0  0  0  0  0  0  0  0
    0.3622   -0.1812    0.4888 C   0  0  0  0  0  0  0  0  0  0  0  0
    0.3984   -2.5649    0.0966 C   0  0  0  0  0  0  0  0  0  0  0  0
   -1.0185   -0.1696    0.2908 C   0  0  0  0  0  0  0  0  0  0  0  0
   -0.9823   -2.5533   -0.1013 C   0  0  0  0  0  0  0  0  0  0  0  0
   -4.0464   -0.3139   -0.1765 C   0  0  0  0  0  0  0  0  0  0  0  0
   -5.3334   -0.6451    0.2076 C   0  0  0  0  0  0  0  0  0  0  0  0
   -6.2442    0.3916    0.2228 C   0  0  0  0  0  0  0  0  0  0  0  0
   -4.6557    1.8639   -0.4670 C   0  0  0  0  0  0  0  0  0  0  0  0
    5.6947    2.6621    1.9885 H   0  0  0  0  0  0  0  0  0  0  0  0
    6.0903    2.7413   -0.4814 H   0  0  0  0  0  0  0  0  0  0  0  0
    4.2435    1.0736    3.6270 H   0  0  0  0  0  0  0  0  0  0  0  0
    2.6922    0.7234    2.8524 H   0  0  0  0  0  0  0  0  0  0  0  0
    3.9411   -0.5344    2.9578 H   0  0  0  0  0  0  0  0  0  0  0  0
    2.5553   -1.6536   -2.0551 H   0  0  0  0  0  0  0  0  0  0  0  0
    3.9452   -0.2428   -3.5238 H   0  0  0  0  0  0  0  0  0  0  0  0
   -1.5190    0.7841    0.4036 H   0  0  0  0  0  0  0  0  0  0  0  0
   -1.4928   -3.4849   -0.3312 H   0  0  0  0  0  0  0  0  0  0  0  0
   -3.4784   -2.2597   -0.4095 H   0  0  0  0  0  0  0  0  0  0  0  0
   -5.6114   -1.6562    0.4822 H   0  0  0  0  0  0  0  0  0  0  0  0
   -4.9988    3.9115   -0.7951 H   0  0  0  0  0  0  0  0  0  0  0  0
   -3.3468    3.3836   -1.0951 H   0  0  0  0  0  0  0  0  0  0  0  0
  1 27  1  0  0  0  0
  2 21  1  0  0  0  0
  3 22  1  0  0  0  0
  4 14  1  0  0  0  0
  4 18  1  0  0  0  0
  5 13  1  0  0  0  0
  5 15  1  0  0  0  0
  5 30  1  0  0  0  0
  6 13  2  0  0  0  0
  6 19  1  0  0  0  0
  7 20  1  0  0  0  0
  7 25  1  0  0  0  0
  7 38  1  0  0  0  0
  8 25  1  0  0  0  0
  8 28  2  0  0  0  0
  9 27  2  0  0  0  0
  9 28  1  0  0  0  0
 10 28  1  0  0  0  0
 10 40  1  0  0  0  0
 10 41  1  0  0  0  0
 11 12  1  0  0  0  0
 11 13  1  0  0  0  0
 11 14  2  0  0  0  0
 12 15  2  0  0  0  0
 12 16  1  0  0  0  0
 14 17  1  0  0  0  0
 15 29  1  0  0  0  0
 16 31  1  0  0  0  0
 16 32  1  0  0  0  0
 16 33  1  0  0  0  0
 17 19  2  0  0  0  0
 17 34  1  0  0  0  0
 18 21  2  0  0  0  0
 18 22  1  0  0  0  0
 19 35  1  0  0  0  0
 20 23  2  0  0  0  0
 20 24  1  0  0  0  0
 21 23  1  0  0  0  0
 22 24  2  0  0  0  0
 23 36  1  0  0  0  0
 24 37  1  0  0  0  0
 25 26  2  0  0  0  0
 26 27  1  0  0  0  0
 26 39  1  0  0  0  0
M  END
> <PUBCHEM_COMPOUND_CID>
11524200

> <PUBCHEM_CONFORMER_RMSD>
0.8

> <PUBCHEM_CONFORMER_DIVERSEORDER>
1
19
23
48
18
75
84
45
11
49
83
40
78
86
10
51
38
64
29
71
36
30
66
87
77
62
70
53
69
27
58
85
88
44
61
34
32
54
35
79
89
73
24
9
14
47
60
39
65
31
25
20
82
80
41
72
63
15
4
52
67
22
56
57
74
76
2
68
37
26
81
50
42
43
28
8
55
59
90
17
21
12
7
5
6
13
33
16
3
46

> <PUBCHEM_MMFF94_PARTIAL_CHARGES>
37
1 -0.18
10 -0.9
12 -0.18
13 0.11
14 0.08
15 -0.3
16 0.18
17 -0.15
18 0.08
19 0.16
2 -0.19
20 0.1
21 0.19
22 0.19
23 -0.15
24 -0.15
25 0.41
26 -0.15
27 0.49
28 0.72
29 0.15
3 -0.19
30 0.27
34 0.15
35 0.15
36 0.15
37 0.15
38 0.4
39 0.15
4 -0.17
40 0.4
41 0.4
5 0.03
6 -0.57
7 -0.6
8 -0.62
9 -0.62

> <PUBCHEM_EFFECTIVE_ROTOR_COUNT>
4

> <PUBCHEM_PHARMACOPHORE_FEATURES>
12
1 10 donor
1 4 acceptor
1 5 donor
1 7 cation
1 7 donor
1 9 acceptor
3 5 6 13 cation
4 8 9 10 28 cation
5 5 11 12 13 15 rings
6 18 20 21 22 23 24 rings
6 6 11 13 14 17 19 rings
6 8 9 25 26 27 28 rings

> <PUBCHEM_HEAVY_ATOM_COUNT>
28

> <PUBCHEM_ATOM_DEF_STEREO_COUNT>
0

> <PUBCHEM_ATOM_UDEF_STEREO_COUNT>
0

> <PUBCHEM_BOND_DEF_STEREO_COUNT>
0

> <PUBCHEM_BOND_UDEF_STEREO_COUNT>
0

> <PUBCHEM_ISOTOPIC_ATOM_COUNT>
0

> <PUBCHEM_COMPONENT_COUNT>
1

> <PUBCHEM_CACTVS_TAUTO_COUNT>
18

> <PUBCHEM_CONFORMER_ID>
00AFD86800000001

> <PUBCHEM_MMFF94_ENERGY>
87.1382

> <PUBCHEM_FEATURE_SELFOVERLAP>
61.009

> <PUBCHEM_SHAPE_FINGERPRINT>
10 15 18186521025351460465
10498660 4 18341899588729936704
10670039 82 18188219697380236372
117089 54 7852485035661323576
11720765 8 17773040740153093214
11796584 16 11815884657370673365
1200032 147 17313967315311367252
12422481 6 17241312573978134308
12596602 18 16515684451243038617
12633257 1 15357696426877278690
12730499 353 18341056241884490955
12969540 114 17632571673466412551
13673619 4 12973870474323209408
14341114 328 16732988643173708503
14790565 3 18410857646551663953
15183329 4 15984831436737624315
15188451 53 11314302871627393567
15324884 4 17414445197610394342
1601671 61 18333730225746218956
17349148 13 11240003377469519767
173720 79 17822285794921357531
18222031 100 9439405739380168358
18608769 82 18339926021799652987
19377110 9 17312820502786883747
20505436 4 17386573595769489202
21033648 29 18199741604381673912
22149856 69 18263380122670787777
23559900 14 18050843313229648299
25122255 55 8502372256735127761
2838139 119 18341321245286574999
3459 39 18266155340588457584
3472631 163 18265053712079855364
34797466 226 17846784009632200237
350125 39 18263640685135436786
3918712 181 18410287021692898257
4093350 32 16702307840816378437
44062 13 10879698889521819357
44249763 50 17916291900381924487
44317340 157 17704075105312612551
465052 167 8286203859708788632
495365 180 17346874585728671642
5104073 3 18116994391332834043
53794403 172 18195246847802893280
563151 74 15502663762577791444
59682541 52 16128660721498763949
70251023 43 16271104613778308646
7808743 9 18337667628319397338
960060 61 14764346046152074198
9658208 31 18340773735904944426
9849439 229 18335132043390412573

> <PUBCHEM_SHAPE_MULTIPOLES>
527.79
16.85
2.75
1.64
21.84
0.84
-0.02
-11.11
0.26
0.33
-0.1
-3.43
-0.47
1.39

> <PUBCHEM_SHAPE_SELFOVERLAP>
1169.021

> <PUBCHEM_SHAPE_VOLUME>
284.1

> <PUBCHEM_COORDINATE_TYPE>
2
5
10

$$$$
