9956874
  -OEChem-10062121563D

 71 76  0     0  0  0  0  0  0999 V2000
    5.1222    0.0073    0.8089 O   0  0  0  0  0  0  0  0  0  0  0  0
   -6.8325   -1.6873    0.3019 N   0  0  0  0  0  0  0  0  0  0  0  0
   -1.5971    0.6059    0.2670 N   0  0  0  0  0  0  0  0  0  0  0  0
   -2.2809    1.7681   -1.7316 N   0  0  0  0  0  0  0  0  0  0  0  0
   -0.5316    3.1945   -2.6446 N   0  0  0  0  0  0  0  0  0  0  0  0
    1.6204    3.3985   -1.6423 N   0  0  0  0  0  0  0  0  0  0  0  0
   -5.6412   -0.9235   -0.0381 C   0  0  0  0  0  0  0  0  0  0  0  0
   -2.8494   -0.1194    0.5180 C   0  0  0  0  0  0  0  0  0  0  0  0
   -4.4730   -1.8776   -0.3096 C   0  0  0  0  0  0  0  0  0  0  0  0
   -5.3086    0.0522    1.0960 C   0  0  0  0  0  0  0  0  0  0  0  0
   -3.1842   -1.1109   -0.6083 C   0  0  0  0  0  0  0  0  0  0  0  0
   -4.0245    0.8294    0.8048 C   0  0  0  0  0  0  0  0  0  0  0  0
   -7.2254   -2.6117   -0.7612 C   0  0  0  0  0  0  0  0  0  0  0  0
   -8.0013   -0.8339    0.5142 C   0  0  0  0  0  0  0  0  0  0  0  0
   -8.6474   -2.9904   -0.3745 C   0  0  0  0  0  0  0  0  0  0  0  0
   -9.1585   -1.8205    0.4606 C   0  0  0  0  0  0  0  0  0  0  0  0
   -0.4678    0.5323    1.0397 C   0  0  0  0  0  0  0  0  0  0  0  0
   -1.3832    1.4624   -0.7787 C   0  0  0  0  0  0  0  0  0  0  0  0
    0.4864    1.3553    0.4803 C   0  0  0  0  0  0  0  0  0  0  0  0
   -0.0859    1.9492   -0.6737 C   0  0  0  0  0  0  0  0  0  0  0  0
   -0.4106   -0.3222    2.2477 C   0  0  0  0  0  0  0  0  0  0  0  0
    1.7977    1.5156    1.0448 C   0  0  0  0  0  0  0  0  0  0  0  0
    0.3263    2.8464   -1.6578 C   0  0  0  0  0  0  0  0  0  0  0  0
   -1.7651    2.6412   -2.6207 C   0  0  0  0  0  0  0  0  0  0  0  0
    2.8356    0.6731    0.6475 C   0  0  0  0  0  0  0  0  0  0  0  0
    2.0313    2.5129    1.9911 C   0  0  0  0  0  0  0  0  0  0  0  0
    4.1083    0.8283    1.1967 C   0  0  0  0  0  0  0  0  0  0  0  0
    3.3040    2.6681    2.5404 C   0  0  0  0  0  0  0  0  0  0  0  0
    4.3425    1.8258    2.1432 C   0  0  0  0  0  0  0  0  0  0  0  0
    4.8138   -0.9912   -0.1625 C   0  0  0  0  0  0  0  0  0  0  0  0
    6.0433   -1.8077   -0.4329 C   0  0  0  0  0  0  0  0  0  0  0  0
    6.9196   -1.4199   -1.4404 C   0  0  0  0  0  0  0  0  0  0  0  0
    6.2952   -2.9451    0.3262 C   0  0  0  0  0  0  0  0  0  0  0  0
    8.0623   -2.1793   -1.6921 C   0  0  0  0  0  0  0  0  0  0  0  0
    7.4379   -3.7044    0.0746 C   0  0  0  0  0  0  0  0  0  0  0  0
    8.3214   -3.3214   -0.9346 C   0  0  0  0  0  0  0  0  0  0  0  0
   -5.8183   -0.3360   -0.9510 H   0  0  0  0  0  0  0  0  0  0  0  0
   -2.7012   -0.7155    1.4247 H   0  0  0  0  0  0  0  0  0  0  0  0
   -4.3081   -2.5348    0.5546 H   0  0  0  0  0  0  0  0  0  0  0  0
   -4.6700   -2.5236   -1.1724 H   0  0  0  0  0  0  0  0  0  0  0  0
   -6.1060    0.7892    1.2417 H   0  0  0  0  0  0  0  0  0  0  0  0
   -5.1935   -0.4898    2.0441 H   0  0  0  0  0  0  0  0  0  0  0  0
   -2.3587   -1.8220   -0.7368 H   0  0  0  0  0  0  0  0  0  0  0  0
   -3.3003   -0.5941   -1.5677 H   0  0  0  0  0  0  0  0  0  0  0  0
   -3.7851    1.4714    1.6616 H   0  0  0  0  0  0  0  0  0  0  0  0
   -4.2072    1.4993   -0.0430 H   0  0  0  0  0  0  0  0  0  0  0  0
   -7.2262   -2.1294   -1.7472 H   0  0  0  0  0  0  0  0  0  0  0  0
   -6.6012   -3.5095   -0.8045 H   0  0  0  0  0  0  0  0  0  0  0  0
   -7.9919   -0.3237    1.4823 H   0  0  0  0  0  0  0  0  0  0  0  0
   -8.1156   -0.0864   -0.2815 H   0  0  0  0  0  0  0  0  0  0  0  0
   -9.2717   -3.1614   -1.2574 H   0  0  0  0  0  0  0  0  0  0  0  0
   -8.6576   -3.9069    0.2273 H   0  0  0  0  0  0  0  0  0  0  0  0
   -9.4210   -2.1701    1.4661 H   0  0  0  0  0  0  0  0  0  0  0  0
  -10.0518   -1.3673    0.0189 H   0  0  0  0  0  0  0  0  0  0  0  0
   -0.5746   -1.3741    1.9911 H   0  0  0  0  0  0  0  0  0  0  0  0
   -1.1623   -0.0130    2.9816 H   0  0  0  0  0  0  0  0  0  0  0  0
    0.5623   -0.2647    2.7454 H   0  0  0  0  0  0  0  0  0  0  0  0
   -2.4284    2.9404   -3.4250 H   0  0  0  0  0  0  0  0  0  0  0  0
    2.5974   -0.0830   -0.0940 H   0  0  0  0  0  0  0  0  0  0  0  0
    1.2329    3.1781    2.3113 H   0  0  0  0  0  0  0  0  0  0  0  0
    2.2866    3.1613   -0.9224 H   0  0  0  0  0  0  0  0  0  0  0  0
    1.8805    4.0458   -2.3745 H   0  0  0  0  0  0  0  0  0  0  0  0
    3.4865    3.4448    3.2773 H   0  0  0  0  0  0  0  0  0  0  0  0
    5.3318    1.9516    2.5744 H   0  0  0  0  0  0  0  0  0  0  0  0
    4.4846   -0.5305   -1.1034 H   0  0  0  0  0  0  0  0  0  0  0  0
    4.0279   -1.6650    0.2041 H   0  0  0  0  0  0  0  0  0  0  0  0
    6.7292   -0.5308   -2.0351 H   0  0  0  0  0  0  0  0  0  0  0  0
    5.6154   -3.2518    1.1164 H   0  0  0  0  0  0  0  0  0  0  0  0
    8.7507   -1.8808   -2.4773 H   0  0  0  0  0  0  0  0  0  0  0  0
    7.6402   -4.5934    0.6648 H   0  0  0  0  0  0  0  0  0  0  0  0
    9.2114   -3.9125   -1.1303 H   0  0  0  0  0  0  0  0  0  0  0  0
  1 27  1  0  0  0  0
  1 30  1  0  0  0  0
  2  7  1  0  0  0  0
  2 13  1  0  0  0  0
  2 14  1  0  0  0  0
  3  8  1  0  0  0  0
  3 17  1  0  0  0  0
  3 18  1  0  0  0  0
  4 18  2  0  0  0  0
  4 24  1  0  0  0  0
  5 23  1  0  0  0  0
  5 24  2  0  0  0  0
  6 23  1  0  0  0  0
  6 61  1  0  0  0  0
  6 62  1  0  0  0  0
  7  9  1  0  0  0  0
  7 10  1  0  0  0  0
  7 37  1  0  0  0  0
  8 11  1  0  0  0  0
  8 12  1  0  0  0  0
  8 38  1  0  0  0  0
  9 11  1  0  0  0  0
  9 39  1  0  0  0  0
  9 40  1  0  0  0  0
 10 12  1  0  0  0  0
 10 41  1  0  0  0  0
 10 42  1  0  0  0  0
 11 43  1  0  0  0  0
 11 44  1  0  0  0  0
 12 45  1  0  0  0  0
 12 46  1  0  0  0  0
 13 15  1  0  0  0  0
 13 47  1  0  0  0  0
 13 48  1  0  0  0  0
 14 16  1  0  0  0  0
 14 49  1  0  0  0  0
 14 50  1  0  0  0  0
 15 16  1  0  0  0  0
 15 51  1  0  0  0  0
 15 52  1  0  0  0  0
 16 53  1  0  0  0  0
 16 54  1  0  0  0  0
 17 19  2  0  0  0  0
 17 21  1  0  0  0  0
 18 20  1  0  0  0  0
 19 20  1  0  0  0  0
 19 22  1  0  0  0  0
 20 23  2  0  0  0  0
 21 55  1  0  0  0  0
 21 56  1  0  0  0  0
 21 57  1  0  0  0  0
 22 25  2  0  0  0  0
 22 26  1  0  0  0  0
 24 58  1  0  0  0  0
 25 27  1  0  0  0  0
 25 59  1  0  0  0  0
 26 28  2  0  0  0  0
 26 60  1  0  0  0  0
 27 29  2  0  0  0  0
 28 29  1  0  0  0  0
 28 63  1  0  0  0  0
 29 64  1  0  0  0  0
 30 31  1  0  0  0  0
 30 65  1  0  0  0  0
 30 66  1  0  0  0  0
 31 32  2  0  0  0  0
 31 33  1  0  0  0  0
 32 34  1  0  0  0  0
 32 67  1  0  0  0  0
 33 35  2  0  0  0  0
 33 68  1  0  0  0  0
 34 36  2  0  0  0  0
 34 69  1  0  0  0  0
 35 36  1  0  0  0  0
 35 70  1  0  0  0  0
 36 71  1  0  0  0  0
M  END
> <PUBCHEM_COMPOUND_CID>
9956874

> <PUBCHEM_CONFORMER_RMSD>
1

> <PUBCHEM_CONFORMER_DIVERSEORDER>
2
13
21
14
16
23
4
6
22
19
9
1
15
18
10
17
24
20
5
3
11
7
8
12

> <PUBCHEM_MMFF94_PARTIAL_CHARGES>
41
1 -0.36
13 0.27
14 0.27
17 -0.33
18 0.11
19 -0.05
2 -0.81
21 0.18
22 0.05
23 0.41
24 0.47
25 -0.15
26 -0.15
27 0.08
28 -0.15
29 -0.15
3 0.05
30 0.42
31 -0.14
32 -0.15
33 -0.15
34 -0.15
35 -0.15
36 -0.15
4 -0.57
5 -0.62
58 0.15
59 0.15
6 -0.9
60 0.15
61 0.4
62 0.4
63 0.15
64 0.15
67 0.15
68 0.15
69 0.15
7 0.27
70 0.15
71 0.15
8 0.26

> <PUBCHEM_EFFECTIVE_ROTOR_COUNT>
8.2

> <PUBCHEM_PHARMACOPHORE_FEATURES>
12
1 1 acceptor
1 2 cation
1 6 cation
1 6 donor
3 3 4 18 cation
3 4 5 24 cation
5 2 13 14 15 16 rings
5 3 17 18 19 20 rings
6 22 25 26 27 28 29 rings
6 31 32 33 34 35 36 rings
6 4 5 18 20 23 24 rings
6 7 8 9 10 11 12 rings

> <PUBCHEM_HEAVY_ATOM_COUNT>
36

> <PUBCHEM_ATOM_DEF_STEREO_COUNT>
0

> <PUBCHEM_ATOM_UDEF_STEREO_COUNT>
0

> <PUBCHEM_BOND_DEF_STEREO_COUNT>
0

> <PUBCHEM_BOND_UDEF_STEREO_COUNT>
0

> <PUBCHEM_ISOTOPIC_ATOM_COUNT>
0

> <PUBCHEM_COMPONENT_COUNT>
1

> <PUBCHEM_CACTVS_TAUTO_COUNT>
4

> <PUBCHEM_CONFORMER_ID>
0097EE0A00000002

> <PUBCHEM_MMFF94_ENERGY>
91.6521

> <PUBCHEM_FEATURE_SELFOVERLAP>
61.179

> <PUBCHEM_SHAPE_FINGERPRINT>
10029044 110 7781518110039706703
10319688 67 12463567383206289375
10533779 47 18271533095870043283
10673678 19 12468355743687082152
11135926 11 17630865258466976496
11331351 85 18337946900912081709
11607047 141 18336837489105106797
12342043 65 18341323436210883168
131258 43 18262255411774216076
13617811 41 17385438830627654128
13673619 4 18411983533795020944
13690498 29 18261392179455802542
13782708 43 18410848829257865170
14117953 113 17895744206546401775
14415361 349 18264490766063114550
14565420 104 10591770878381813988
14675020 138 13110973032322858101
14918310 93 18411975841361687007
15198563 99 17313104103419219341
15324884 4 18121746549145008724
16991971 28 18040438823932748803
16994733 274 11025800924508854919
19301679 30 17561090164114635936
19315958 150 18200027494231447400
19841028 212 18131632304986330658
20165401 70 18060133284346109679
20505436 4 16269666671676852704
20982279 24 18263096543192790291
21057603 307 18114478846014592124
21130935 74 17986670575189031259
21307412 95 18040444312642711539
21641784 216 16298374730449586484
21792938 169 18127673016003181312
23569943 247 18338799992353273915
23576562 1 17313105242018524357
25269216 80 16877947114340959375
255183 451 18260550039042655692
3504750 166 18201434797208267215
484985 159 18127693712870429568
5372103 7 14852465384165289518
57816373 69 18267298910449457949
58260988 647 18343866619232225842
6058803 2 14474671006390840968
6691757 9 13758059767227918692
9831232 110 18410852132035175942
9980921 177 11383845831560518020

> <PUBCHEM_SHAPE_MULTIPOLES>
710.09
25.41
4.53
2.19
11.77
0.74
-0.54
39.96
-1.48
-4.97
-1.47
-1.53
-2.49
3.27

> <PUBCHEM_SHAPE_SELFOVERLAP>
1558.79

> <PUBCHEM_SHAPE_VOLUME>
380.8

> <PUBCHEM_COORDINATE_TYPE>
2
5
10

$$$$
