24905149
  -OEChem-10052115153D

 60 65  0     0  0  0  0  0  0999 V2000
    3.3502    2.0078   -1.2006 O   0  0  0  0  0  0  0  0  0  0  0  0
   -7.2115   -0.1718    1.0192 O   0  0  0  0  0  0  0  0  0  0  0  0
    1.9801    1.0455    0.4565 N   0  0  0  0  0  0  0  0  0  0  0  0
   -0.5715   -0.6330    1.2879 N   0  0  0  0  0  0  0  0  0  0  0  0
    2.7000   -0.9565    1.5216 N   0  0  0  0  0  0  0  0  0  0  0  0
   -1.6681    0.1317    1.1315 N   0  0  0  0  0  0  0  0  0  0  0  0
    0.3163   -2.7659    0.5637 N   0  0  0  0  0  0  0  0  0  0  0  0
   -1.2317   -3.9309   -0.9186 N   0  0  0  0  0  0  0  0  0  0  0  0
   -3.3495   -3.0239   -1.5424 N   0  0  0  0  0  0  0  0  0  0  0  0
    0.5465   -0.1503    2.1567 C   0  0  0  0  0  0  0  0  0  0  0  0
    1.8233   -0.0148    1.3524 C   0  0  0  0  0  0  0  0  0  0  0  0
    4.0942    0.0294   -0.2269 C   0  0  0  0  0  0  0  0  0  0  0  0
   -0.6240   -1.8084    0.5993 C   0  0  0  0  0  0  0  0  0  0  0  0
    3.1047    1.1148   -0.3928 C   0  0  0  0  0  0  0  0  0  0  0  0
    1.0403    2.1306    0.3852 C   0  0  0  0  0  0  0  0  0  0  0  0
   -1.8432   -1.8135   -0.0553 C   0  0  0  0  0  0  0  0  0  0  0  0
    3.8606   -0.9468    0.7417 C   0  0  0  0  0  0  0  0  0  0  0  0
   -2.4387   -0.5927    0.3126 C   0  0  0  0  0  0  0  0  0  0  0  0
    5.2554   -0.0027   -1.0083 C   0  0  0  0  0  0  0  0  0  0  0  0
    0.3822    2.4300   -0.8076 C   0  0  0  0  0  0  0  0  0  0  0  0
   -3.7266   -0.0878   -0.0920 C   0  0  0  0  0  0  0  0  0  0  0  0
    4.8063   -1.9630    0.9214 C   0  0  0  0  0  0  0  0  0  0  0  0
   -2.1364   -2.9259   -0.8372 C   0  0  0  0  0  0  0  0  0  0  0  0
    0.7896    2.8882    1.5293 C   0  0  0  0  0  0  0  0  0  0  0  0
    6.1890   -1.0208   -0.8195 C   0  0  0  0  0  0  0  0  0  0  0  0
    5.9657   -2.0000    0.1455 C   0  0  0  0  0  0  0  0  0  0  0  0
    5.5764    1.0073   -2.0628 C   0  0  0  0  0  0  0  0  0  0  0  0
   -0.5266    3.4870   -0.8563 C   0  0  0  0  0  0  0  0  0  0  0  0
    0.6312    1.6355   -2.0485 C   0  0  0  0  0  0  0  0  0  0  0  0
   -0.1191    3.9453    1.4804 C   0  0  0  0  0  0  0  0  0  0  0  0
   -4.8593   -0.3785    0.6682 C   0  0  0  0  0  0  0  0  0  0  0  0
   -3.8400    0.6928   -1.2423 C   0  0  0  0  0  0  0  0  0  0  0  0
   -0.7773    4.2447    0.2876 C   0  0  0  0  0  0  0  0  0  0  0  0
   -0.0780   -3.7905   -0.2230 C   0  0  0  0  0  0  0  0  0  0  0  0
   -6.1056    0.1117    0.2781 C   0  0  0  0  0  0  0  0  0  0  0  0
   -5.0862    1.1830   -1.6324 C   0  0  0  0  0  0  0  0  0  0  0  0
   -6.2190    0.8924   -0.8723 C   0  0  0  0  0  0  0  0  0  0  0  0
    0.2097    0.7582    2.6502 H   0  0  0  0  0  0  0  0  0  0  0  0
    0.6592   -0.9241    2.9254 H   0  0  0  0  0  0  0  0  0  0  0  0
    4.6424   -2.7370    1.6674 H   0  0  0  0  0  0  0  0  0  0  0  0
    1.3187    2.6957    2.4592 H   0  0  0  0  0  0  0  0  0  0  0  0
    7.0989   -1.0699   -1.4120 H   0  0  0  0  0  0  0  0  0  0  0  0
    6.6923   -2.7936    0.2933 H   0  0  0  0  0  0  0  0  0  0  0  0
    4.8047    1.0259   -2.8393 H   0  0  0  0  0  0  0  0  0  0  0  0
    5.7169    2.0014   -1.6261 H   0  0  0  0  0  0  0  0  0  0  0  0
    6.5140    0.7683   -2.5793 H   0  0  0  0  0  0  0  0  0  0  0  0
   -1.0453    3.7323   -1.7793 H   0  0  0  0  0  0  0  0  0  0  0  0
    1.3975    2.1050   -2.6713 H   0  0  0  0  0  0  0  0  0  0  0  0
    0.8959    0.5935   -1.8453 H   0  0  0  0  0  0  0  0  0  0  0  0
   -0.2864    1.5852   -2.6479 H   0  0  0  0  0  0  0  0  0  0  0  0
   -0.3082    4.5406    2.3690 H   0  0  0  0  0  0  0  0  0  0  0  0
   -4.7742   -0.9875    1.5659 H   0  0  0  0  0  0  0  0  0  0  0  0
   -2.9664    0.9287   -1.8455 H   0  0  0  0  0  0  0  0  0  0  0  0
   -1.4835    5.0690    0.2492 H   0  0  0  0  0  0  0  0  0  0  0  0
    0.6242   -4.6127   -0.3107 H   0  0  0  0  0  0  0  0  0  0  0  0
   -4.0420   -2.2907   -1.5021 H   0  0  0  0  0  0  0  0  0  0  0  0
   -3.5222   -3.8496   -2.1001 H   0  0  0  0  0  0  0  0  0  0  0  0
   -5.1744    1.7910   -2.5280 H   0  0  0  0  0  0  0  0  0  0  0  0
   -7.1870    1.2771   -1.1814 H   0  0  0  0  0  0  0  0  0  0  0  0
   -6.9505   -0.7218    1.7778 H   0  0  0  0  0  0  0  0  0  0  0  0
  1 14  2  0  0  0  0
  2 35  1  0  0  0  0
  2 60  1  0  0  0  0
  3 11  1  0  0  0  0
  3 14  1  0  0  0  0
  3 15  1  0  0  0  0
  4  6  1  0  0  0  0
  4 10  1  0  0  0  0
  4 13  1  0  0  0  0
  5 11  2  0  0  0  0
  5 17  1  0  0  0  0
  6 18  2  0  0  0  0
  7 13  2  0  0  0  0
  7 34  1  0  0  0  0
  8 23  1  0  0  0  0
  8 34  2  0  0  0  0
  9 23  1  0  0  0  0
  9 56  1  0  0  0  0
  9 57  1  0  0  0  0
 10 11  1  0  0  0  0
 10 38  1  0  0  0  0
 10 39  1  0  0  0  0
 12 14  1  0  0  0  0
 12 17  1  0  0  0  0
 12 19  2  0  0  0  0
 13 16  1  0  0  0  0
 15 20  1  0  0  0  0
 15 24  2  0  0  0  0
 16 18  1  0  0  0  0
 16 23  2  0  0  0  0
 17 22  2  0  0  0  0
 18 21  1  0  0  0  0
 19 25  1  0  0  0  0
 19 27  1  0  0  0  0
 20 28  2  0  0  0  0
 20 29  1  0  0  0  0
 21 31  2  0  0  0  0
 21 32  1  0  0  0  0
 22 26  1  0  0  0  0
 22 40  1  0  0  0  0
 24 30  1  0  0  0  0
 24 41  1  0  0  0  0
 25 26  2  0  0  0  0
 25 42  1  0  0  0  0
 26 43  1  0  0  0  0
 27 44  1  0  0  0  0
 27 45  1  0  0  0  0
 27 46  1  0  0  0  0
 28 33  1  0  0  0  0
 28 47  1  0  0  0  0
 29 48  1  0  0  0  0
 29 49  1  0  0  0  0
 29 50  1  0  0  0  0
 30 33  2  0  0  0  0
 30 51  1  0  0  0  0
 31 35  1  0  0  0  0
 31 52  1  0  0  0  0
 32 36  2  0  0  0  0
 32 53  1  0  0  0  0
 33 54  1  0  0  0  0
 34 55  1  0  0  0  0
 35 37  2  0  0  0  0
 36 37  1  0  0  0  0
 36 58  1  0  0  0  0
 37 59  1  0  0  0  0
M  END
> <PUBCHEM_COMPOUND_CID>
24905149

> <PUBCHEM_CONFORMER_RMSD>
0.8

> <PUBCHEM_CONFORMER_DIVERSEORDER>
10
109
58
33
116
62
91
123
117
111
63
8
134
74
129
114
50
82
81
89
103
115
86
80
19
39
131
118
66
76
45
120
122
94
44
60
141
99
64
132
51
79
95
72
48
97
29
13
140
59
107
3
92
54
73
119
100
87
46
78
15
77
61
47
136
90
70
142
108
26
125
16
113
124
2
25
133
98
55
139
126
57
110
138
14
30
49
69
83
102
112
67
32
85
27
9
93
65
137
1
121
130
71
5
135
52
20
75
104
68
101
38
53
40
56
128
43
41
34
18
31
84
24
7
127
35
88
36
28
96
23
6
42
105
21
106
22
17
12
37
11
4

> <PUBCHEM_MMFF94_PARTIAL_CHARGES>
51
1 -0.57
10 0.32
11 0.45
12 0.09
13 0.11
14 0.54
15 0.12
17 0.18
18 0.23
19 -0.14
2 -0.53
20 -0.14
21 0.05
22 -0.15
23 0.41
24 -0.15
25 -0.15
26 -0.15
27 0.14
28 -0.15
29 0.14
3 -0.24
30 -0.15
31 -0.15
32 -0.15
33 -0.15
34 0.47
35 0.08
36 -0.15
37 -0.15
4 0.31
40 0.15
41 0.15
42 0.15
43 0.15
47 0.15
5 -0.63
51 0.15
52 0.15
53 0.15
54 0.15
55 0.15
56 0.4
57 0.4
58 0.15
59 0.15
6 -0.71
60 0.45
7 -0.57
8 -0.62
9 -0.9

> <PUBCHEM_EFFECTIVE_ROTOR_COUNT>
4

> <PUBCHEM_PHARMACOPHORE_FEATURES>
13
1 1 acceptor
1 2 donor
1 6 acceptor
1 9 cation
1 9 donor
3 4 7 13 cation
3 7 8 34 cation
5 4 6 13 16 18 rings
6 12 17 19 22 25 26 rings
6 15 20 24 28 30 33 rings
6 21 31 32 35 36 37 rings
6 3 5 11 12 14 17 rings
6 7 8 13 16 23 34 rings

> <PUBCHEM_HEAVY_ATOM_COUNT>
37

> <PUBCHEM_ATOM_DEF_STEREO_COUNT>
0

> <PUBCHEM_ATOM_UDEF_STEREO_COUNT>
0

> <PUBCHEM_BOND_DEF_STEREO_COUNT>
0

> <PUBCHEM_BOND_UDEF_STEREO_COUNT>
0

> <PUBCHEM_ISOTOPIC_ATOM_COUNT>
0

> <PUBCHEM_COMPONENT_COUNT>
1

> <PUBCHEM_CACTVS_TAUTO_COUNT>
15

> <PUBCHEM_CONFORMER_ID>
017C05BD0000000A

> <PUBCHEM_MMFF94_ENERGY>
133.5623

> <PUBCHEM_FEATURE_SELFOVERLAP>
66.282

> <PUBCHEM_SHAPE_FINGERPRINT>
10190206 1 18191047667779483396
11513181 2 17840866274610982311
11578080 2 17986097742178057072
11621639 179 18261104171528834853
12156800 1 17907602236417196980
12788726 201 18339930316402802512
13636023 20 17984422116770068640
14068700 675 17917990573075455785
14955137 171 18408889559745903459
15183329 4 18341336621264187206
15297060 5 17985261868528168745
19319366 153 17822284682810178258
20465049 17 18334297595395119835
20775438 99 17264083705030026215
21285901 2 18129391410104626598
21987440 362 15620083684319874801
22440779 20 16955943363200349330
23559900 14 17845366803462914336
23576562 1 18264201577878431005
24893992 56 18272653455553169345
3027735 51 18126851495241880612
3178227 256 18338812182113193427
340366 18 18340204193197309591
463206 1 18411979199714375614
5265222 85 18188216493192429732
70251023 43 17761779867640421826

> <PUBCHEM_SHAPE_MULTIPOLES>
714.84
13.2
4.65
1.74
3.34
0.84
0.1
-3.46
3.6
0.61
0.21
-0.41
0.57
-0.86

> <PUBCHEM_SHAPE_SELFOVERLAP>
1615.212

> <PUBCHEM_SHAPE_VOLUME>
371.8

> <PUBCHEM_COORDINATE_TYPE>
2
5
10

$$$$
