23646814
  -OEChem-10052120443D

 49 51  0     0  0  0  0  0  0999 V2000
    2.4549   -3.2680    0.2510 Cl  0  0  0  0  0  0  0  0  0  0  0  0
    1.3162    2.4384    1.0874 O   0  0  0  0  0  0  0  0  0  0  0  0
   -1.9646   -1.3033    0.0390 O   0  0  0  0  0  0  0  0  0  0  0  0
    5.5005   -0.2420    0.1657 N   0  0  0  0  0  0  0  0  0  0  0  0
   -0.7812    0.6598    0.5223 N   0  0  0  0  0  0  0  0  0  0  0  0
   -3.0721    0.7454    0.2529 N   0  0  0  0  0  0  0  0  0  0  0  0
   -4.7243   -0.8875   -0.2301 N   0  0  0  0  0  0  0  0  0  0  0  0
   -6.6688    1.1311   -0.1275 N   0  0  0  0  0  0  0  0  0  0  0  0
   -9.5018   -0.6325   -0.7796 N   0  0  0  0  0  0  0  0  0  0  0  0
    6.8959   -0.6640    0.3516 C   0  0  0  0  0  0  0  0  0  0  0  0
    5.1485   -0.1841   -1.2600 C   0  0  0  0  0  0  0  0  0  0  0  0
    7.8601    0.2943   -0.3491 C   0  0  0  0  0  0  0  0  0  0  0  0
    6.0555    0.7902   -2.0134 C   0  0  0  0  0  0  0  0  0  0  0  0
    7.5260    0.4329   -1.8301 C   0  0  0  0  0  0  0  0  0  0  0  0
    4.5947   -1.1411    0.8803 C   0  0  0  0  0  0  0  0  0  0  0  0
    3.1619   -0.6897    0.7800 C   0  0  0  0  0  0  0  0  0  0  0  0
    2.8881    0.6583    0.9772 C   0  0  0  0  0  0  0  0  0  0  0  0
    2.1408   -1.5890    0.4993 C   0  0  0  0  0  0  0  0  0  0  0  0
    1.5727    1.1139    0.8921 C   0  0  0  0  0  0  0  0  0  0  0  0
    0.8251   -1.1334    0.4141 C   0  0  0  0  0  0  0  0  0  0  0  0
    0.5411    0.2181    0.6106 C   0  0  0  0  0  0  0  0  0  0  0  0
   -1.9469   -0.0945    0.2484 C   0  0  0  0  0  0  0  0  0  0  0  0
    1.3487    3.2804   -0.0629 C   0  0  0  0  0  0  0  0  0  0  0  0
   -4.4231    0.3925    0.0247 C   0  0  0  0  0  0  0  0  0  0  0  0
   -5.3618    1.3882    0.0779 C   0  0  0  0  0  0  0  0  0  0  0  0
   -6.0313   -1.1447   -0.4352 C   0  0  0  0  0  0  0  0  0  0  0  0
   -6.9864   -0.1533   -0.3849 C   0  0  0  0  0  0  0  0  0  0  0  0
   -8.3684   -0.4165   -0.6018 C   0  0  0  0  0  0  0  0  0  0  0  0
    7.0517   -1.6826   -0.0279 H   0  0  0  0  0  0  0  0  0  0  0  0
    7.1417   -0.6737    1.4205 H   0  0  0  0  0  0  0  0  0  0  0  0
    5.2258   -1.1796   -1.7183 H   0  0  0  0  0  0  0  0  0  0  0  0
    4.1228    0.1621   -1.4234 H   0  0  0  0  0  0  0  0  0  0  0  0
    8.8887   -0.0658   -0.2344 H   0  0  0  0  0  0  0  0  0  0  0  0
    7.8110    1.2803    0.1304 H   0  0  0  0  0  0  0  0  0  0  0  0
    5.8787    1.8113   -1.6519 H   0  0  0  0  0  0  0  0  0  0  0  0
    5.8047    0.7807   -3.0802 H   0  0  0  0  0  0  0  0  0  0  0  0
    8.1598    1.1998   -2.2887 H   0  0  0  0  0  0  0  0  0  0  0  0
    7.7400   -0.5124   -2.3437 H   0  0  0  0  0  0  0  0  0  0  0  0
    4.8502   -1.1529    1.9485 H   0  0  0  0  0  0  0  0  0  0  0  0
    4.7487   -2.1607    0.5149 H   0  0  0  0  0  0  0  0  0  0  0  0
    3.6767    1.3679    1.2147 H   0  0  0  0  0  0  0  0  0  0  0  0
    0.0759   -1.8796    0.1933 H   0  0  0  0  0  0  0  0  0  0  0  0
   -0.9193    1.6547    0.6810 H   0  0  0  0  0  0  0  0  0  0  0  0
    0.6219    2.9479   -0.8108 H   0  0  0  0  0  0  0  0  0  0  0  0
    1.0894    4.2959    0.2486 H   0  0  0  0  0  0  0  0  0  0  0  0
    2.3534    3.2937   -0.4973 H   0  0  0  0  0  0  0  0  0  0  0  0
   -2.9018    1.7301    0.4418 H   0  0  0  0  0  0  0  0  0  0  0  0
   -5.1179    2.4236    0.2843 H   0  0  0  0  0  0  0  0  0  0  0  0
   -6.2754   -2.1805   -0.6418 H   0  0  0  0  0  0  0  0  0  0  0  0
  1 18  1  0  0  0  0
  2 19  1  0  0  0  0
  2 23  1  0  0  0  0
  3 22  2  0  0  0  0
  4 10  1  0  0  0  0
  4 11  1  0  0  0  0
  4 15  1  0  0  0  0
  5 21  1  0  0  0  0
  5 22  1  0  0  0  0
  5 43  1  0  0  0  0
  6 22  1  0  0  0  0
  6 24  1  0  0  0  0
  6 47  1  0  0  0  0
  7 24  2  0  0  0  0
  7 26  1  0  0  0  0
  8 25  2  0  0  0  0
  8 27  1  0  0  0  0
  9 28  3  0  0  0  0
 10 12  1  0  0  0  0
 10 29  1  0  0  0  0
 10 30  1  0  0  0  0
 11 13  1  0  0  0  0
 11 31  1  0  0  0  0
 11 32  1  0  0  0  0
 12 14  1  0  0  0  0
 12 33  1  0  0  0  0
 12 34  1  0  0  0  0
 13 14  1  0  0  0  0
 13 35  1  0  0  0  0
 13 36  1  0  0  0  0
 14 37  1  0  0  0  0
 14 38  1  0  0  0  0
 15 16  1  0  0  0  0
 15 39  1  0  0  0  0
 15 40  1  0  0  0  0
 16 17  2  0  0  0  0
 16 18  1  0  0  0  0
 17 19  1  0  0  0  0
 17 41  1  0  0  0  0
 18 20  2  0  0  0  0
 19 21  2  0  0  0  0
 20 21  1  0  0  0  0
 20 42  1  0  0  0  0
 23 44  1  0  0  0  0
 23 45  1  0  0  0  0
 23 46  1  0  0  0  0
 24 25  1  0  0  0  0
 25 48  1  0  0  0  0
 26 27  2  0  0  0  0
 26 49  1  0  0  0  0
 27 28  1  0  0  0  0
M  END
> <PUBCHEM_COMPOUND_CID>
23646814

> <PUBCHEM_CONFORMER_RMSD>
1

> <PUBCHEM_CONFORMER_DIVERSEORDER>
1
25
9
27
34
24
30
7
20
23
26
17
22
32
29
14
35
19
8
16
21
33
13
31
18
3
15
11
28
10
4
5
12
6
2

> <PUBCHEM_MMFF94_PARTIAL_CHARGES>
31
1 -0.18
10 0.27
11 0.27
15 0.41
16 -0.14
17 -0.15
18 0.18
19 0.08
2 -0.36
20 -0.15
21 0.12
22 0.69
23 0.28
24 0.43
25 0.16
26 0.16
27 0.38
28 0.48
3 -0.57
4 -0.81
41 0.15
42 0.15
43 0.37
47 0.37
48 0.15
49 0.15
5 -0.55
6 -0.55
7 -0.62
8 -0.62
9 -0.56

> <PUBCHEM_EFFECTIVE_ROTOR_COUNT>
8.2

> <PUBCHEM_PHARMACOPHORE_FEATURES>
10
1 2 acceptor
1 3 acceptor
1 4 cation
1 5 donor
1 6 donor
1 8 acceptor
1 9 acceptor
6 16 17 18 19 20 21 rings
6 4 10 11 12 13 14 rings
6 7 8 24 25 26 27 rings

> <PUBCHEM_HEAVY_ATOM_COUNT>
28

> <PUBCHEM_ATOM_DEF_STEREO_COUNT>
0

> <PUBCHEM_ATOM_UDEF_STEREO_COUNT>
0

> <PUBCHEM_BOND_DEF_STEREO_COUNT>
0

> <PUBCHEM_BOND_UDEF_STEREO_COUNT>
0

> <PUBCHEM_ISOTOPIC_ATOM_COUNT>
0

> <PUBCHEM_COMPONENT_COUNT>
1

> <PUBCHEM_CACTVS_TAUTO_COUNT>
5

> <PUBCHEM_CONFORMER_ID>
0168D25E00000001

> <PUBCHEM_MMFF94_ENERGY>
78.0398

> <PUBCHEM_FEATURE_SELFOVERLAP>
50.796

> <PUBCHEM_SHAPE_FINGERPRINT>
10 15 8142078754638095510
10050765 1 18124871523787208995
10299344 5 18335420158222999975
10673678 19 17823151154128758484
10906281 52 18263379026768337978
11135609 127 17968099793799741052
11315181 36 17603870001689031081
11638347 137 13973967614684306367
12166972 35 18131346428037322417
13617811 41 18408885136183250512
13668630 136 17060337435908535311
13685833 64 15841556262665710220
14068700 675 18272653432845002720
14170010 4 18412256263764928953
14251764 18 18409448073108819099
14767858 380 18408045104729836116
15183329 4 18411142428421200833
15198563 99 16845303678832281000
15361156 5 18114183073287105967
15439362 3 18047755081678782612
15840311 113 16950568796535676390
15849732 13 17632857533821146772
16120349 18 17530683229571221724
16728300 4 12102744956488505228
18335252 114 17530967995152433244
18681886 176 18131060559028947131
19301679 30 10159440690865055796
19319366 153 18113613461518285914
20105231 36 17775571948637055727
2026 5 15768947740651885646
20554085 129 12540693743202778572
20771845 171 18187369797016108942
21049683 271 18335421283067296284
21150785 3 17967532381000245503
21267235 1 18273214214577585969
21344244 181 17060348401261288398
21360443 126 18187086178022653106
22224240 67 7925910366075414880
23522609 53 18192453907879612089
23559900 14 18339071692336949809
23576562 1 18192156103394148037
246663 6 16988844986404558823
249057 3 18201153338947318967
255183 451 17972879156314115674
3004659 81 18342168982338183873
335352 9 18412543231983412935
34797466 226 16702297967113638480
4073 2 18188206606963684587
4093350 32 13334724726944946840
4325135 7 17967532367540532270
445580 126 10809340040505388309
45377200 153 16486682684767099783
504579 68 18340479050293731277
58260988 647 15195021405637354198
59755656 215 17560804307733375366

> <PUBCHEM_SHAPE_MULTIPOLES>
536.47
25.33
2.24
1.19
31.93
0.19
0.43
-1.26
11.51
-1.31
-0.36
-2.11
0.25
-1.31

> <PUBCHEM_SHAPE_SELFOVERLAP>
1127.89

> <PUBCHEM_SHAPE_VOLUME>
300.6

> <PUBCHEM_COORDINATE_TYPE>
2
5
10

$$$$
