49830637
  -OEChem-10052120433D

 36 39  0     0  0  0  0  0  0999 V2000
   -4.9911   -1.0752   -0.0729 S   0  0  0  0  0  0  0  0  0  0  0  0
    4.4682   -2.9765   -0.6166 O   0  0  0  0  0  0  0  0  0  0  0  0
   -3.2252    1.4283   -0.1770 N   0  0  0  0  0  0  0  0  0  0  0  0
   -2.3846    2.4956   -0.2171 N   0  0  0  0  0  0  0  0  0  0  0  0
   -1.2636    0.5092    0.0036 C   0  0  0  0  0  0  0  0  0  0  0  0
    0.0624   -0.1526    0.1285 C   0  0  0  0  0  0  0  0  0  0  0  0
    0.9155    1.1233    0.0717 C   0  0  0  0  0  0  0  0  0  0  0  0
   -1.2031    1.9068   -0.1053 C   0  0  0  0  0  0  0  0  0  0  0  0
    0.1565    2.3172   -0.0649 C   0  0  0  0  0  0  0  0  0  0  0  0
   -2.5949    0.2103   -0.0449 C   0  0  0  0  0  0  0  0  0  0  0  0
    2.2962    1.1940    0.1402 C   0  0  0  0  0  0  0  0  0  0  0  0
    0.7315    3.5670   -0.1343 C   0  0  0  0  0  0  0  0  0  0  0  0
   -3.2817   -1.0216    0.0152 C   0  0  0  0  0  0  0  0  0  0  0  0
    2.8975    2.4561    0.0713 C   0  0  0  0  0  0  0  0  0  0  0  0
    2.1247    3.6269   -0.0642 C   0  0  0  0  0  0  0  0  0  0  0  0
   -2.7312   -2.2778    0.1443 C   0  0  0  0  0  0  0  0  0  0  0  0
    3.1026    0.0239    0.2784 C   0  0  0  0  0  0  0  0  0  0  0  0
   -3.7258   -3.2976    0.1711 C   0  0  0  0  0  0  0  0  0  0  0  0
   -4.9985   -2.7822    0.0615 C   0  0  0  0  0  0  0  0  0  0  0  0
    3.7808   -0.9608    0.3941 C   0  0  0  0  0  0  0  0  0  0  0  0
    4.6069   -2.1590    0.5368 C   0  0  0  0  0  0  0  0  0  0  0  0
    5.2566   -4.1552   -0.5195 C   0  0  0  0  0  0  0  0  0  0  0  0
    0.1774   -0.6624    1.0882 H   0  0  0  0  0  0  0  0  0  0  0  0
    0.2750   -0.8081   -0.7198 H   0  0  0  0  0  0  0  0  0  0  0  0
    0.1400    4.4691   -0.2386 H   0  0  0  0  0  0  0  0  0  0  0  0
   -4.2198    1.6053   -0.2456 H   0  0  0  0  0  0  0  0  0  0  0  0
    3.9805    2.5535    0.1219 H   0  0  0  0  0  0  0  0  0  0  0  0
    2.6238    4.5913   -0.1148 H   0  0  0  0  0  0  0  0  0  0  0  0
   -1.6698   -2.4782    0.2176 H   0  0  0  0  0  0  0  0  0  0  0  0
   -3.5184   -4.3556    0.2659 H   0  0  0  0  0  0  0  0  0  0  0  0
   -5.9324   -3.3264    0.0541 H   0  0  0  0  0  0  0  0  0  0  0  0
    5.6579   -1.8732    0.6588 H   0  0  0  0  0  0  0  0  0  0  0  0
    4.2948   -2.7216    1.4240 H   0  0  0  0  0  0  0  0  0  0  0  0
    5.1110   -4.7426   -1.4300 H   0  0  0  0  0  0  0  0  0  0  0  0
    4.9423   -4.7576    0.3384 H   0  0  0  0  0  0  0  0  0  0  0  0
    6.3176   -3.9013   -0.4339 H   0  0  0  0  0  0  0  0  0  0  0  0
  1 13  1  0  0  0  0
  1 19  1  0  0  0  0
  2 21  1  0  0  0  0
  2 22  1  0  0  0  0
  3  4  1  0  0  0  0
  3 10  1  0  0  0  0
  3 26  1  0  0  0  0
  4  8  2  0  0  0  0
  5  6  1  0  0  0  0
  5  8  1  0  0  0  0
  5 10  2  0  0  0  0
  6  7  1  0  0  0  0
  6 23  1  0  0  0  0
  6 24  1  0  0  0  0
  7  9  1  0  0  0  0
  7 11  2  0  0  0  0
  8  9  1  0  0  0  0
  9 12  2  0  0  0  0
 10 13  1  0  0  0  0
 11 14  1  0  0  0  0
 11 17  1  0  0  0  0
 12 15  1  0  0  0  0
 12 25  1  0  0  0  0
 13 16  2  0  0  0  0
 14 15  2  0  0  0  0
 14 27  1  0  0  0  0
 15 28  1  0  0  0  0
 16 18  1  0  0  0  0
 16 29  1  0  0  0  0
 17 20  3  0  0  0  0
 18 19  2  0  0  0  0
 18 30  1  0  0  0  0
 19 31  1  0  0  0  0
 20 21  1  0  0  0  0
 21 32  1  0  0  0  0
 21 33  1  0  0  0  0
 22 34  1  0  0  0  0
 22 35  1  0  0  0  0
 22 36  1  0  0  0  0
M  END
> <PUBCHEM_COMPOUND_CID>
49830637

> <PUBCHEM_CONFORMER_RMSD>
0.6

> <PUBCHEM_CONFORMER_DIVERSEORDER>
1
3
2
4

> <PUBCHEM_MMFF94_PARTIAL_CHARGES>
29
1 -0.08
10 -0.15
11 0.07
12 -0.15
13 0.04
14 -0.15
15 -0.15
16 -0.15
17 -0.07
18 -0.15
19 -0.11
2 -0.56
20 -0.2
21 0.48
22 0.28
25 0.15
26 0.27
27 0.15
28 0.15
29 0.15
3 0.3
30 0.15
31 0.15
4 -0.71
5 -0.18
6 0.32
7 -0.14
8 0.23
9 0.05

> <PUBCHEM_EFFECTIVE_ROTOR_COUNT>
2.2

> <PUBCHEM_PHARMACOPHORE_FEATURES>
7
1 2 acceptor
1 3 donor
1 4 acceptor
5 1 13 16 18 19 rings
5 3 4 5 8 10 rings
5 5 6 7 8 9 rings
6 7 9 11 12 14 15 rings

> <PUBCHEM_HEAVY_ATOM_COUNT>
22

> <PUBCHEM_ATOM_DEF_STEREO_COUNT>
0

> <PUBCHEM_ATOM_UDEF_STEREO_COUNT>
0

> <PUBCHEM_BOND_DEF_STEREO_COUNT>
0

> <PUBCHEM_BOND_UDEF_STEREO_COUNT>
0

> <PUBCHEM_ISOTOPIC_ATOM_COUNT>
0

> <PUBCHEM_COMPONENT_COUNT>
1

> <PUBCHEM_CACTVS_TAUTO_COUNT>
2

> <PUBCHEM_CONFORMER_ID>
02F85AED00000001

> <PUBCHEM_MMFF94_ENERGY>
55.3371

> <PUBCHEM_FEATURE_SELFOVERLAP>
35.909

> <PUBCHEM_SHAPE_FINGERPRINT>
10411042 1 18410292484727222810
10429389 16 18044346479799559503
10622 236 17628336471263810351
10693767 8 18055331769277366775
1100329 8 18338517422444257905
11719270 70 18050278473569634208
12107183 9 18341908346632412521
12839892 36 17907559673761181624
12969540 37 18335698390636500476
12990986 174 18265610992687216154
13140716 1 18341892961353241176
13533116 47 18197216056649250619
138480 1 14303289570628174554
13955234 65 18054228996866715784
14790565 3 17111290170344882453
14863182 85 17758683630122212652
14866123 147 18053103913330550881
15042514 8 18267022752067207608
15196674 1 18120934164743737785
15250474 111 17839452629181145719
15352361 1 18410572877287785354
16120349 21 18198073490919180403
17492 89 18410854403719649059
17859628 70 18267024049395237962
17909252 39 18338804528091146506
1813 80 17169260649903646397
18681886 176 17324076417821904164
20028762 73 17837488914567143638
20286276 3 18409451396786271689
20645477 70 18117831333886616729
21267235 1 18049167957940012653
21279426 13 18261943108049158455
21307412 95 18124873452148443230
221490 88 18263363744905439752
22849339 104 17620208533539400590
23379529 103 18340773620357286038
23559900 14 18410845577667123529
239999 70 17912660295133013612
314194 84 17908142432383313963
335352 9 18337951191293980693
3421961 26 18339640152469544002
463206 1 18262523572241442098
5104073 3 18268713982067510561
56633871 153 18269564840431455067
59755656 215 18119810458964264660
6433294 58 18265615579279791114
7970288 3 18338515227642499626
88748 71 18408608058403568987
9709674 26 18189897693873889131

> <PUBCHEM_SHAPE_MULTIPOLES>
440.77
10.68
5.52
0.67
1.69
2.11
0
14.05
-0.16
-5.7
-0.68
-0.19
0.15
0.76

> <PUBCHEM_SHAPE_SELFOVERLAP>
969.544

> <PUBCHEM_SHAPE_VOLUME>
241.5

> <PUBCHEM_COORDINATE_TYPE>
2
5
10

$$$$
