9981692
  -OEChem-10052115183D

 58 61  0     0  0  0  0  0  0999 V2000
   -0.2250   -4.1457   -0.2980 O   0  0  0  0  0  0  0  0  0  0  0  0
   -6.8079    2.7608    1.0518 O   0  0  0  0  0  0  0  0  0  0  0  0
    5.7955   -1.1847    1.6705 O   0  0  0  0  0  0  0  0  0  0  0  0
   -8.7695    1.8088   -0.6711 O   0  0  0  0  0  0  0  0  0  0  0  0
    6.0088    0.4175   -2.0286 O   0  0  0  0  0  0  0  0  0  0  0  0
   -0.3466    0.1392    0.4213 N   0  0  0  0  0  0  0  0  0  0  0  0
    1.1656   -2.4782    0.2140 N   0  0  0  0  0  0  0  0  0  0  0  0
    5.9802    1.0340    1.0222 N   0  0  0  0  0  0  0  0  0  0  0  0
    7.8063    1.6401   -1.1933 N   0  0  0  0  0  0  0  0  0  0  0  0
   -1.4020   -0.7193    0.1013 C   0  0  0  0  0  0  0  0  0  0  0  0
    1.0244   -0.0273    0.6149 C   0  0  0  0  0  0  0  0  0  0  0  0
   -1.3186   -2.0939   -0.1235 C   0  0  0  0  0  0  0  0  0  0  0  0
    1.7167   -1.2275    0.5193 C   0  0  0  0  0  0  0  0  0  0  0  0
   -3.8343   -0.8098   -0.3112 C   0  0  0  0  0  0  0  0  0  0  0  0
   -2.6773   -0.1015    0.0003 C   0  0  0  0  0  0  0  0  0  0  0  0
   -0.0972   -2.9359   -0.0696 C   0  0  0  0  0  0  0  0  0  0  0  0
    3.1125   -1.2409    0.7437 C   0  0  0  0  0  0  0  0  0  0  0  0
   -2.5080   -2.7999   -0.4400 C   0  0  0  0  0  0  0  0  0  0  0  0
    3.8181   -0.0825    1.0593 C   0  0  0  0  0  0  0  0  0  0  0  0
    1.7619    1.1396    0.9365 C   0  0  0  0  0  0  0  0  0  0  0  0
   -3.7481   -2.1693   -0.5328 C   0  0  0  0  0  0  0  0  0  0  0  0
   -5.1080   -0.1308   -0.4017 C   0  0  0  0  0  0  0  0  0  0  0  0
    3.1381    1.1172    1.1564 C   0  0  0  0  0  0  0  0  0  0  0  0
    5.2537   -0.1338    1.2835 C   0  0  0  0  0  0  0  0  0  0  0  0
   -5.3525    1.0019    0.3753 C   0  0  0  0  0  0  0  0  0  0  0  0
   -6.0928   -0.6086   -1.2666 C   0  0  0  0  0  0  0  0  0  0  0  0
    7.4140    1.1341    1.1738 C   0  0  0  0  0  0  0  0  0  0  0  0
   -6.5812    1.6563    0.2874 C   0  0  0  0  0  0  0  0  0  0  0  0
    8.1525    0.7691   -0.1029 C   0  0  0  0  0  0  0  0  0  0  0  0
   -7.3214    0.0459   -1.3544 C   0  0  0  0  0  0  0  0  0  0  0  0
   -7.5657    1.1782   -0.5774 C   0  0  0  0  0  0  0  0  0  0  0  0
    6.7584    1.3897   -2.0687 C   0  0  0  0  0  0  0  0  0  0  0  0
   -5.7496    3.1839    1.9094 C   0  0  0  0  0  0  0  0  0  0  0  0
    6.5990    2.4733   -3.1012 C   0  0  0  0  0  0  0  0  0  0  0  0
   -0.6435    1.1044    0.5424 H   0  0  0  0  0  0  0  0  0  0  0  0
   -2.7163    0.9790    0.1395 H   0  0  0  0  0  0  0  0  0  0  0  0
    1.8518   -3.2307    0.1957 H   0  0  0  0  0  0  0  0  0  0  0  0
    3.6543   -2.1833    0.6629 H   0  0  0  0  0  0  0  0  0  0  0  0
   -2.4978   -3.8740   -0.6179 H   0  0  0  0  0  0  0  0  0  0  0  0
    1.2480    2.0964    1.0252 H   0  0  0  0  0  0  0  0  0  0  0  0
   -4.6130   -2.7888   -0.7512 H   0  0  0  0  0  0  0  0  0  0  0  0
    3.6238    2.0493    1.4272 H   0  0  0  0  0  0  0  0  0  0  0  0
   -4.5885    1.3262    1.0712 H   0  0  0  0  0  0  0  0  0  0  0  0
   -5.9371   -1.4689   -1.9119 H   0  0  0  0  0  0  0  0  0  0  0  0
    7.6316    2.1686    1.4611 H   0  0  0  0  0  0  0  0  0  0  0  0
    7.7345    0.4785    1.9903 H   0  0  0  0  0  0  0  0  0  0  0  0
    5.5113    1.8510    0.6459 H   0  0  0  0  0  0  0  0  0  0  0  0
    7.9313   -0.2648   -0.3912 H   0  0  0  0  0  0  0  0  0  0  0  0
    9.2327    0.8555    0.0525 H   0  0  0  0  0  0  0  0  0  0  0  0
   -8.0777   -0.3330   -2.0367 H   0  0  0  0  0  0  0  0  0  0  0  0
    8.3527    2.4887   -1.3099 H   0  0  0  0  0  0  0  0  0  0  0  0
   -9.3239    1.3384   -1.3170 H   0  0  0  0  0  0  0  0  0  0  0  0
   -6.0993    4.0809    2.4314 H   0  0  0  0  0  0  0  0  0  0  0  0
   -5.5303    2.4366    2.6797 H   0  0  0  0  0  0  0  0  0  0  0  0
   -4.8595    3.4765    1.3419 H   0  0  0  0  0  0  0  0  0  0  0  0
    5.9488    2.1210   -3.9067 H   0  0  0  0  0  0  0  0  0  0  0  0
    6.1511    3.3552   -2.6352 H   0  0  0  0  0  0  0  0  0  0  0  0
    7.5701    2.7398   -3.5279 H   0  0  0  0  0  0  0  0  0  0  0  0
  1 16  2  0  0  0  0
  2 28  1  0  0  0  0
  2 33  1  0  0  0  0
  3 24  2  0  0  0  0
  4 31  1  0  0  0  0
  4 52  1  0  0  0  0
  5 32  2  0  0  0  0
  6 10  1  0  0  0  0
  6 11  1  0  0  0  0
  6 35  1  0  0  0  0
  7 13  1  0  0  0  0
  7 16  1  0  0  0  0
  7 37  1  0  0  0  0
  8 24  1  0  0  0  0
  8 27  1  0  0  0  0
  8 47  1  0  0  0  0
  9 29  1  0  0  0  0
  9 32  1  0  0  0  0
  9 51  1  0  0  0  0
 10 12  2  0  0  0  0
 10 15  1  0  0  0  0
 11 13  2  0  0  0  0
 11 20  1  0  0  0  0
 12 16  1  0  0  0  0
 12 18  1  0  0  0  0
 13 17  1  0  0  0  0
 14 15  2  0  0  0  0
 14 21  1  0  0  0  0
 14 22  1  0  0  0  0
 15 36  1  0  0  0  0
 17 19  2  0  0  0  0
 17 38  1  0  0  0  0
 18 21  2  0  0  0  0
 18 39  1  0  0  0  0
 19 23  1  0  0  0  0
 19 24  1  0  0  0  0
 20 23  2  0  0  0  0
 20 40  1  0  0  0  0
 21 41  1  0  0  0  0
 22 25  2  0  0  0  0
 22 26  1  0  0  0  0
 23 42  1  0  0  0  0
 25 28  1  0  0  0  0
 25 43  1  0  0  0  0
 26 30  2  0  0  0  0
 26 44  1  0  0  0  0
 27 29  1  0  0  0  0
 27 45  1  0  0  0  0
 27 46  1  0  0  0  0
 28 31  2  0  0  0  0
 29 48  1  0  0  0  0
 29 49  1  0  0  0  0
 30 31  1  0  0  0  0
 30 50  1  0  0  0  0
 32 34  1  0  0  0  0
 33 53  1  0  0  0  0
 33 54  1  0  0  0  0
 33 55  1  0  0  0  0
 34 56  1  0  0  0  0
 34 57  1  0  0  0  0
 34 58  1  0  0  0  0
M  END
> <PUBCHEM_COMPOUND_CID>
9981692

> <PUBCHEM_CONFORMER_RMSD>
1

> <PUBCHEM_CONFORMER_DIVERSEORDER>
1
37
49
39
36
21
51
30
38
43
47
50
41
7
54
44
40
59
26
4
17
48
19
18
34
53
31
28
9
46
3
24
15
58
5
35
52
16
45
22
32
6
60
25
33
42
11
10
23
27
20
55
29
2
13
8
14
56
57
12

> <PUBCHEM_MMFF94_PARTIAL_CHARGES>
46
1 -0.57
10 0.1
11 0.1
12 0.09
13 0.12
15 -0.15
16 0.54
17 -0.15
18 -0.15
19 0.09
2 -0.36
20 -0.15
21 -0.15
23 -0.15
24 0.54
25 -0.15
26 -0.15
27 0.3
28 0.08
29 0.3
3 -0.57
30 -0.15
31 0.08
32 0.57
33 0.28
34 0.06
35 0.4
36 0.15
37 0.37
38 0.15
39 0.15
4 -0.53
40 0.15
41 0.15
42 0.15
43 0.15
44 0.15
47 0.37
5 -0.57
50 0.15
51 0.37
52 0.45
6 -0.6
7 -0.55
8 -0.73
9 -0.73

> <PUBCHEM_EFFECTIVE_ROTOR_COUNT>
8.4

> <PUBCHEM_PHARMACOPHORE_FEATURES>
14
1 1 acceptor
1 2 acceptor
1 3 acceptor
1 4 donor
1 5 acceptor
1 6 cation
1 6 donor
1 7 donor
1 8 donor
1 9 donor
6 10 12 14 15 18 21 rings
6 11 13 17 19 20 23 rings
6 22 25 26 28 30 31 rings
7 6 7 10 11 12 13 16 rings

> <PUBCHEM_HEAVY_ATOM_COUNT>
34

> <PUBCHEM_ATOM_DEF_STEREO_COUNT>
0

> <PUBCHEM_ATOM_UDEF_STEREO_COUNT>
0

> <PUBCHEM_BOND_DEF_STEREO_COUNT>
0

> <PUBCHEM_BOND_UDEF_STEREO_COUNT>
0

> <PUBCHEM_ISOTOPIC_ATOM_COUNT>
0

> <PUBCHEM_COMPONENT_COUNT>
1

> <PUBCHEM_CACTVS_TAUTO_COUNT>
130

> <PUBCHEM_CONFORMER_ID>
00984EFC00000001

> <PUBCHEM_MMFF94_ENERGY>
131.0972

> <PUBCHEM_FEATURE_SELFOVERLAP>
71.063

> <PUBCHEM_SHAPE_FINGERPRINT>
10 15 18186799171765556851
10533779 47 14057261110386042632
10595046 47 18058436640095532191
10816530 90 18334580153162596588
10906281 52 18334583429436744195
10951579 204 17845669057671874664
11386260 185 16917062313392697008
11475781 23 18060420240327999320
1200032 147 18334295348905788794
12013929 112 18337687338942509238
12133447 93 18060422374025640056
13248334 5 17981602668172629711
13627175 23 18113902662544607869
13782708 43 12391515269356791946
14251757 52 17967254204452877948
14294032 229 18334856070251815492
14931854 50 17704352160836294393
15064981 113 16845299370800220884
15064981 194 18263648535966356259
15183329 4 18342737425027333816
15198563 99 17203342091545219248
15276724 80 17603859009966160956
15461852 350 17846207904531548591
1577012 14 18410844477944765635
15840311 113 17748826307011428310
16728433 281 17559970826538858289
16993427 108 10807943626378413854
21033648 144 18337095767495896871
21298829 104 18342453725336672297
21792965 106 18043528305588961437
23522609 53 18187656816320468324
23559900 14 17916294125538819058
23569914 152 16555112761931334636
23576562 1 18194960966141498157
23729398 52 18053953848420062727
2747138 104 12179836204699425518
335352 9 18342165691702177235
3418910 222 18410580596151163865
3633792 109 14979966860744441694
3711267 37 18260552242487900972
397830 11 15357989991738749073
3986486 107 17632305558084393684
4058900 60 18335706022567279483
4073 2 18334011684192589419
4093350 32 17095240316036063562
4169191 19 18260824882953455037
4258327 124 18041285451858836861
44426701 97 7997969081606560398
44880568 143 17489307524824013216
4516262 110 18267857295548995333
5265222 85 18197218272710041198
5758199 1 18413101745747268731
5911458 16 18113904879196061004
59682541 52 16845578591425308694
6328613 192 18335139821191018268
9953998 17 13767924616344693141
9962374 69 11026097763491107305
9980921 221 17559977470526087233

> <PUBCHEM_SHAPE_MULTIPOLES>
650.43
26.43
3.33
1.8
5.36
1.49
1.03
-23.16
7.47
-3.11
0
3.56
-1.45
-4.18

> <PUBCHEM_SHAPE_SELFOVERLAP>
1419.965

> <PUBCHEM_SHAPE_VOLUME>
349.9

> <PUBCHEM_COORDINATE_TYPE>
2
5
10

$$$$
