44444843
  -OEChem-10052120443D

 50 53  0     0  0  0  0  0  0999 V2000
    3.5155    3.2154    0.9172 Cl  0  0  0  0  0  0  0  0  0  0  0  0
    7.5705   -1.2234   -1.0845 S   0  0  0  0  0  0  0  0  0  0  0  0
   -0.0576   -0.9923   -1.1423 O   0  0  0  0  0  0  0  0  0  0  0  0
   -4.0666   -2.0262    0.7328 O   0  0  0  0  0  0  0  0  0  0  0  0
   -1.2401    3.7263   -0.6048 O   0  0  0  0  0  0  0  0  0  0  0  0
    4.3956    0.4067    0.1655 N   0  0  0  0  0  0  0  0  0  0  0  0
   -1.1166    1.4105   -0.4783 N   0  0  0  0  0  0  0  0  0  0  0  0
   -3.1705    2.5637   -0.4074 N   0  0  0  0  0  0  0  0  0  0  0  0
   -3.5380    0.2250    0.1367 N   0  0  0  0  0  0  0  0  0  0  0  0
   -6.2857    0.7596    0.2079 N   0  0  0  0  0  0  0  0  0  0  0  0
    8.4745   -0.7296    1.2865 N   0  0  0  0  0  0  0  0  0  0  0  0
   -7.5928   -2.2384    1.0408 N   0  0  0  0  0  0  0  0  0  0  0  0
   -1.0033   -3.2088   -1.1792 C   0  0  0  0  0  0  0  0  0  0  0  0
   -2.4024   -2.6486   -0.9213 C   0  0  0  0  0  0  0  0  0  0  0  0
    0.1461   -2.3305   -0.6856 C   0  0  0  0  0  0  0  0  0  0  0  0
   -2.6814   -2.3311    0.5462 C   0  0  0  0  0  0  0  0  0  0  0  0
    0.8071   -0.0621   -0.6184 C   0  0  0  0  0  0  0  0  0  0  0  0
    0.2805    1.2110   -0.3277 C   0  0  0  0  0  0  0  0  0  0  0  0
    3.0199    0.6928    0.0138 C   0  0  0  0  0  0  0  0  0  0  0  0
    2.1759   -0.3108   -0.4576 C   0  0  0  0  0  0  0  0  0  0  0  0
    1.1423    2.2075    0.1494 C   0  0  0  0  0  0  0  0  0  0  0  0
    2.5040    1.9477    0.3184 C   0  0  0  0  0  0  0  0  0  0  0  0
    4.9594   -0.8689   -0.1439 C   0  0  0  0  0  0  0  0  0  0  0  0
   -4.4465   -0.7316    0.4347 C   0  0  0  0  0  0  0  0  0  0  0  0
    6.4335   -0.8798    0.1526 C   0  0  0  0  0  0  0  0  0  0  0  0
   -1.7851    2.6241   -0.4948 C   0  0  0  0  0  0  0  0  0  0  0  0
   -4.0113    1.4626   -0.1252 C   0  0  0  0  0  0  0  0  0  0  0  0
   -5.7974   -0.4645    0.4723 C   0  0  0  0  0  0  0  0  0  0  0  0
    7.0971   -0.6432    1.3382 C   0  0  0  0  0  0  0  0  0  0  0  0
   -5.3747    1.7101   -0.0867 C   0  0  0  0  0  0  0  0  0  0  0  0
    8.8356   -1.0304    0.0589 C   0  0  0  0  0  0  0  0  0  0  0  0
   -6.7875   -1.4427    0.7857 C   0  0  0  0  0  0  0  0  0  0  0  0
   -0.9116   -4.2046   -0.7298 H   0  0  0  0  0  0  0  0  0  0  0  0
   -0.8996   -3.3407   -2.2637 H   0  0  0  0  0  0  0  0  0  0  0  0
   -2.5612   -1.7530   -1.5337 H   0  0  0  0  0  0  0  0  0  0  0  0
   -3.1451   -3.3736   -1.2787 H   0  0  0  0  0  0  0  0  0  0  0  0
    0.1941   -2.3556    0.4101 H   0  0  0  0  0  0  0  0  0  0  0  0
    1.0752   -2.7423   -1.0943 H   0  0  0  0  0  0  0  0  0  0  0  0
   -2.4797   -3.2231    1.1503 H   0  0  0  0  0  0  0  0  0  0  0  0
   -2.0376   -1.5380    0.9432 H   0  0  0  0  0  0  0  0  0  0  0  0
    2.5661   -1.2841   -0.7307 H   0  0  0  0  0  0  0  0  0  0  0  0
    0.7683    3.1870    0.4301 H   0  0  0  0  0  0  0  0  0  0  0  0
    4.9861    1.1630    0.4949 H   0  0  0  0  0  0  0  0  0  0  0  0
    4.7907   -1.1171   -1.1991 H   0  0  0  0  0  0  0  0  0  0  0  0
    4.4986   -1.6558    0.4671 H   0  0  0  0  0  0  0  0  0  0  0  0
   -1.6573    0.5742   -0.6807 H   0  0  0  0  0  0  0  0  0  0  0  0
   -3.6464    3.4568   -0.5137 H   0  0  0  0  0  0  0  0  0  0  0  0
    6.6219   -0.4024    2.2799 H   0  0  0  0  0  0  0  0  0  0  0  0
   -5.7908    2.6922   -0.2867 H   0  0  0  0  0  0  0  0  0  0  0  0
    9.8727   -1.1510   -0.2224 H   0  0  0  0  0  0  0  0  0  0  0  0
  1 22  1  0  0  0  0
  2 25  1  0  0  0  0
  2 31  1  0  0  0  0
  3 15  1  0  0  0  0
  3 17  1  0  0  0  0
  4 16  1  0  0  0  0
  4 24  1  0  0  0  0
  5 26  2  0  0  0  0
  6 19  1  0  0  0  0
  6 23  1  0  0  0  0
  6 43  1  0  0  0  0
  7 18  1  0  0  0  0
  7 26  1  0  0  0  0
  7 46  1  0  0  0  0
  8 26  1  0  0  0  0
  8 27  1  0  0  0  0
  8 47  1  0  0  0  0
  9 24  2  0  0  0  0
  9 27  1  0  0  0  0
 10 28  2  0  0  0  0
 10 30  1  0  0  0  0
 11 29  1  0  0  0  0
 11 31  2  0  0  0  0
 12 32  3  0  0  0  0
 13 14  1  0  0  0  0
 13 15  1  0  0  0  0
 13 33  1  0  0  0  0
 13 34  1  0  0  0  0
 14 16  1  0  0  0  0
 14 35  1  0  0  0  0
 14 36  1  0  0  0  0
 15 37  1  0  0  0  0
 15 38  1  0  0  0  0
 16 39  1  0  0  0  0
 16 40  1  0  0  0  0
 17 18  1  0  0  0  0
 17 20  2  0  0  0  0
 18 21  2  0  0  0  0
 19 20  1  0  0  0  0
 19 22  2  0  0  0  0
 20 41  1  0  0  0  0
 21 22  1  0  0  0  0
 21 42  1  0  0  0  0
 23 25  1  0  0  0  0
 23 44  1  0  0  0  0
 23 45  1  0  0  0  0
 24 28  1  0  0  0  0
 25 29  2  0  0  0  0
 27 30  2  0  0  0  0
 28 32  1  0  0  0  0
 29 48  1  0  0  0  0
 30 49  1  0  0  0  0
 31 50  1  0  0  0  0
M  END
> <PUBCHEM_COMPOUND_CID>
44444843

> <PUBCHEM_CONFORMER_RMSD>
0.8

> <PUBCHEM_CONFORMER_DIVERSEORDER>
1
18
10
27
32
20
30
33
4
19
22
24
31
9
28
29
5
23
13
16
11
21
7
6
14
3
15
17
8
25
26
12
2

> <PUBCHEM_MMFF94_PARTIAL_CHARGES>
38
1 -0.18
10 -0.62
11 -0.57
12 -0.56
15 0.28
16 0.28
17 0.08
18 0.12
19 0.1
2 -0.08
20 -0.15
21 -0.15
22 0.18
23 0.55
24 0.39
25 -0.14
26 0.69
27 0.43
28 0.38
29 0.08
3 -0.36
30 0.16
31 0.23
32 0.48
4 -0.36
41 0.15
42 0.15
43 0.4
46 0.37
47 0.37
48 0.15
49 0.15
5 -0.57
50 0.15
6 -0.87
7 -0.55
8 -0.55
9 -0.62

> <PUBCHEM_EFFECTIVE_ROTOR_COUNT>
4.6

> <PUBCHEM_PHARMACOPHORE_FEATURES>
12
1 10 acceptor
1 11 acceptor
1 12 acceptor
1 3 acceptor
1 5 acceptor
1 6 cation
1 6 donor
1 7 donor
1 8 donor
5 2 11 25 29 31 rings
6 17 18 19 20 21 22 rings
6 9 10 24 27 28 30 rings

> <PUBCHEM_HEAVY_ATOM_COUNT>
32

> <PUBCHEM_ATOM_DEF_STEREO_COUNT>
0

> <PUBCHEM_ATOM_UDEF_STEREO_COUNT>
0

> <PUBCHEM_BOND_DEF_STEREO_COUNT>
0

> <PUBCHEM_BOND_UDEF_STEREO_COUNT>
0

> <PUBCHEM_ISOTOPIC_ATOM_COUNT>
0

> <PUBCHEM_COMPONENT_COUNT>
1

> <PUBCHEM_CACTVS_TAUTO_COUNT>
5

> <PUBCHEM_CONFORMER_ID>
02A62CAB00000001

> <PUBCHEM_MMFF94_ENERGY>
99.972

> <PUBCHEM_FEATURE_SELFOVERLAP>
60.937

> <PUBCHEM_SHAPE_FINGERPRINT>
10 15 18342170073618417088
10050765 1 18197774604335065796
10299344 5 17676209057307428522
10838868 229 17904191539429428122
10939801 23 18337672018698925418
11135609 12 18340197584065652192
11456790 92 17988376948547323771
11524674 6 17846776295391058078
11578080 2 16986576809864691896
11756154 5 18412255121852384144
11756154 67 18408042897148853332
12035758 1 18060137635463666622
12104220 1 17775007839094900304
12107183 9 18343584079256911074
12645989 146 18341332313866339559
12838862 33 18339068290902420061
12838863 1 18339919429146452207
13402501 40 18411986854057805397
14117953 113 18410291372663165629
14675019 173 18040154041403913772
14725015 67 18335421309843856913
14790565 3 17330275485917321860
14866123 147 18341043103347658006
15021287 119 17603873286795999340
18608769 82 18411416207549584150
21267235 1 18335707151963686665
21304304 249 18335986462815164887
23559900 14 18337105769351635345
3178227 256 18341619196042903616
335352 9 18413106160672942884
3383291 50 18410574002421907418
350125 39 18411700998019702820
397830 11 18129930291784040232
57527306 92 15267346198106770003
6138700 20 18334859433558594835
6371380 46 18335136522946818298
9896288 288 18057045705281782025

> <PUBCHEM_SHAPE_MULTIPOLES>
611.79
21.87
3.78
1.04
25.48
1.3
0.06
-10.89
7.17
-2.94
-0.49
0.56
-0.35
1.52

> <PUBCHEM_SHAPE_SELFOVERLAP>
1294.217

> <PUBCHEM_SHAPE_VOLUME>
342.3

> <PUBCHEM_COORDINATE_TYPE>
2
5
10

$$$$
