57325479
  -OEChem-10052115173D

 45 46  0     1  0  0  0  0  0999 V2000
    7.3323    2.7079    0.3135 Cl  0  0  0  0  0  0  0  0  0  0  0  0
   -3.4899    3.6288   -0.8062 O   0  0  0  0  0  0  0  0  0  0  0  0
    1.2243   -3.3258    0.3765 O   0  0  0  0  0  0  0  0  0  0  0  0
   -5.6625    2.0073    1.6188 O   0  0  0  0  0  0  0  0  0  0  0  0
   -4.6801   -1.0865    0.0042 O   0  0  0  0  0  0  0  0  0  0  0  0
   -3.5382    0.7208   -0.8960 N   0  0  0  0  0  0  0  0  0  0  0  0
   -4.6195    2.8784   -0.3590 C   0  0  1  0  0  0  0  0  0  0  0  0
   -4.6883    1.5555   -1.1198 C   0  0  0  0  0  0  0  0  0  0  0  0
   -2.3482   -1.2750   -0.1530 C   0  0  0  0  0  0  0  0  0  0  0  0
    0.0401   -1.2413    0.2098 C   0  0  0  0  0  0  0  0  0  0  0  0
   -4.5075    2.6971    1.1513 C   0  0  0  0  0  0  0  0  0  0  0  0
   -3.6311   -0.5509   -0.3439 C   0  0  0  0  0  0  0  0  0  0  0  0
   -1.1642   -0.5608    0.0308 C   0  0  0  0  0  0  0  0  0  0  0  0
    0.0606   -2.6360    0.2050 C   0  0  0  0  0  0  0  0  0  0  0  0
   -2.3276   -2.6698   -0.1580 C   0  0  0  0  0  0  0  0  0  0  0  0
   -1.1235   -3.3503    0.0211 C   0  0  0  0  0  0  0  0  0  0  0  0
    1.2634   -0.4731    0.3992 C   0  0  0  0  0  0  0  0  0  0  0  0
    2.3353   -0.5008   -0.4254 C   0  0  0  0  0  0  0  0  0  0  0  0
    3.5658    0.2893   -0.2433 C   0  0  0  0  0  0  0  0  0  0  0  0
    3.5513    1.4267    0.5642 C   0  0  0  0  0  0  0  0  0  0  0  0
    4.7451   -0.1002   -0.8782 C   0  0  0  0  0  0  0  0  0  0  0  0
    4.7160    2.1746    0.7366 C   0  0  0  0  0  0  0  0  0  0  0  0
    5.9098    0.6478   -0.7059 C   0  0  0  0  0  0  0  0  0  0  0  0
    1.1412   -4.7490    0.3560 C   0  0  0  0  0  0  0  0  0  0  0  0
    5.8952    1.7851    0.1016 C   0  0  0  0  0  0  0  0  0  0  0  0
   -5.5207    3.4595   -0.5879 H   0  0  0  0  0  0  0  0  0  0  0  0
   -5.6066    1.0150   -0.8683 H   0  0  0  0  0  0  0  0  0  0  0  0
   -4.7068    1.7534   -2.1976 H   0  0  0  0  0  0  0  0  0  0  0  0
   -2.6480    1.0728   -1.2318 H   0  0  0  0  0  0  0  0  0  0  0  0
   -4.4528    3.6721    1.6478 H   0  0  0  0  0  0  0  0  0  0  0  0
   -3.6093    2.1367    1.4316 H   0  0  0  0  0  0  0  0  0  0  0  0
   -1.1594    0.5259    0.0688 H   0  0  0  0  0  0  0  0  0  0  0  0
   -3.2398   -3.2424   -0.3045 H   0  0  0  0  0  0  0  0  0  0  0  0
   -1.1880   -4.4326    0.0038 H   0  0  0  0  0  0  0  0  0  0  0  0
    1.2449    0.1611    1.2811 H   0  0  0  0  0  0  0  0  0  0  0  0
    2.3198   -1.1516   -1.2975 H   0  0  0  0  0  0  0  0  0  0  0  0
   -3.5864    3.7605   -1.7647 H   0  0  0  0  0  0  0  0  0  0  0  0
   -5.5662    1.9128    2.5818 H   0  0  0  0  0  0  0  0  0  0  0  0
    2.6524    1.7793    1.0611 H   0  0  0  0  0  0  0  0  0  0  0  0
    4.7750   -0.9846   -1.5100 H   0  0  0  0  0  0  0  0  0  0  0  0
    4.6894    3.0613    1.3649 H   0  0  0  0  0  0  0  0  0  0  0  0
    6.8216    0.3324   -1.2066 H   0  0  0  0  0  0  0  0  0  0  0  0
    0.5331   -5.1314    1.1830 H   0  0  0  0  0  0  0  0  0  0  0  0
    0.8062   -5.1211   -0.6183 H   0  0  0  0  0  0  0  0  0  0  0  0
    2.1560   -5.1318    0.5076 H   0  0  0  0  0  0  0  0  0  0  0  0
  1 25  1  0  0  0  0
  2  7  1  0  0  0  0
  2 37  1  0  0  0  0
  3 14  1  0  0  0  0
  3 24  1  0  0  0  0
  4 11  1  0  0  0  0
  4 38  1  0  0  0  0
  5 12  2  0  0  0  0
  6  8  1  0  0  0  0
  6 12  1  0  0  0  0
  6 29  1  0  0  0  0
  7  8  1  0  0  0  0
  7 11  1  0  0  0  0
  7 26  1  0  0  0  0
  8 27  1  0  0  0  0
  8 28  1  0  0  0  0
  9 12  1  0  0  0  0
  9 13  2  0  0  0  0
  9 15  1  0  0  0  0
 10 13  1  0  0  0  0
 10 14  2  0  0  0  0
 10 17  1  0  0  0  0
 11 30  1  0  0  0  0
 11 31  1  0  0  0  0
 13 32  1  0  0  0  0
 14 16  1  0  0  0  0
 15 16  2  0  0  0  0
 15 33  1  0  0  0  0
 16 34  1  0  0  0  0
 17 18  2  0  0  0  0
 17 35  1  0  0  0  0
 18 19  1  0  0  0  0
 18 36  1  0  0  0  0
 19 20  2  0  0  0  0
 19 21  1  0  0  0  0
 20 22  1  0  0  0  0
 20 39  1  0  0  0  0
 21 23  2  0  0  0  0
 21 40  1  0  0  0  0
 22 25  2  0  0  0  0
 22 41  1  0  0  0  0
 23 25  1  0  0  0  0
 23 42  1  0  0  0  0
 24 43  1  0  0  0  0
 24 44  1  0  0  0  0
 24 45  1  0  0  0  0
M  END
> <PUBCHEM_COMPOUND_CID>
57325479

> <PUBCHEM_CONFORMER_RMSD>
0.8

> <PUBCHEM_CONFORMER_DIVERSEORDER>
32
10
91
41
65
55
70
68
56
90
49
79
57
46
30
34
23
89
47
9
15
66
58
80
7
53
18
31
77
36
12
37
45
88
8
26
50
20
21
19
78
42
14
83
82
44
1
85
33
13
59
3
16
71
63
28
69
17
43
5
64
54
22
87
51
38
48
86
27
25
52
74
61
73
60
39
2
6
81
11
76
62
40
4
24
75
72
35
29
84
67

> <PUBCHEM_MMFF94_PARTIAL_CHARGES>
37
1 -0.18
10 0.03
11 0.28
12 0.54
13 -0.15
14 0.08
15 -0.15
16 -0.15
17 -0.18
18 -0.18
19 0.03
2 -0.68
20 -0.15
21 -0.15
22 -0.15
23 -0.15
24 0.28
25 0.18
29 0.37
3 -0.36
32 0.15
33 0.15
34 0.15
35 0.15
36 0.15
37 0.4
38 0.4
39 0.15
4 -0.68
40 0.15
41 0.15
42 0.15
5 -0.57
6 -0.73
7 0.28
8 0.3
9 0.09

> <PUBCHEM_EFFECTIVE_ROTOR_COUNT>
8

> <PUBCHEM_PHARMACOPHORE_FEATURES>
9
1 2 acceptor
1 2 donor
1 3 acceptor
1 4 acceptor
1 4 donor
1 5 acceptor
1 6 donor
6 19 20 21 22 23 25 rings
6 9 10 13 14 15 16 rings

> <PUBCHEM_HEAVY_ATOM_COUNT>
25

> <PUBCHEM_ATOM_DEF_STEREO_COUNT>
1

> <PUBCHEM_ATOM_UDEF_STEREO_COUNT>
0

> <PUBCHEM_BOND_DEF_STEREO_COUNT>
1

> <PUBCHEM_BOND_UDEF_STEREO_COUNT>
0

> <PUBCHEM_ISOTOPIC_ATOM_COUNT>
0

> <PUBCHEM_COMPONENT_COUNT>
1

> <PUBCHEM_CACTVS_TAUTO_COUNT>
2

> <PUBCHEM_CONFORMER_ID>
036AB7A700000020

> <PUBCHEM_MMFF94_ENERGY>
75.5153

> <PUBCHEM_FEATURE_SELFOVERLAP>
45.675

> <PUBCHEM_SHAPE_FINGERPRINT>
10411042 1 17472135554074963467
10670039 82 18410568504815762765
10675989 125 18341052896600345842
10883706 163 18187920746298487228
11135609 201 18411703192736967881
12107183 9 18261656118477001242
12390115 104 18411707577729823349
12422481 6 17240758424533963398
13540713 5 18267003008757624191
14251764 75 18411705356894452592
14347329 18 18412537726173359480
14508225 48 17549247581838627783
14713325 29 18334582386382320059
14765038 42 18129957684611453913
14790565 3 18409728422302990034
14848178 96 18340198579748789793
14950920 106 14418141720339756317
155225 5 18410853244200545516
17980427 26 18339063901203777230
21033648 29 18340479079994953408
21279426 13 18343306938249848732
21401589 2 18260834787047754649
23559900 14 18199749155267418222
23569914 152 17127073217843810348
283562 15 18265610064895607139
38570 142 18058183730160265257
5104073 3 18187082827889666266
5283173 99 18341611581424479880
6327066 14 18261380144704615229
636775 72 18197494250477357680
7288768 16 17967816012113894499
7808743 9 18409725183765838689
79837 15 18187933940247758947
9981440 41 18333732433449450619

> <PUBCHEM_SHAPE_MULTIPOLES>
487.9
15.54
5.23
0.97
14.88
3.13
-0.08
-19.63
-0.07
-3.56
-0.79
-0.63
-0.55
0.21

> <PUBCHEM_SHAPE_SELFOVERLAP>
1017.649

> <PUBCHEM_SHAPE_VOLUME>
277.5

> <PUBCHEM_COORDINATE_TYPE>
2
5
10

$$$$
