18767859
  -OEChem-10052115183D

 59 62  0     1  0  0  0  0  0999 V2000
   -0.9639   -2.7334    1.4900 O   0  0  0  0  0  0  0  0  0  0  0  0
    2.4781    0.5087    1.2299 N   0  0  0  0  0  0  0  0  0  0  0  0
    0.7659   -1.1703    1.3852 N   0  0  0  0  0  0  0  0  0  0  0  0
    4.9326    3.2349    0.9975 N   0  0  0  0  0  0  0  0  0  0  0  0
    0.3222    1.0084    0.5654 N   0  0  0  0  0  0  0  0  0  0  0  0
   -3.4878    3.7192   -1.1997 N   0  0  0  0  0  0  0  0  0  0  0  0
    4.4787    1.8505    0.8057 C   0  0  1  0  0  0  0  0  0  0  0  0
    2.9452    1.8177    0.9066 C   0  0  0  0  0  0  0  0  0  0  0  0
    5.0197    1.3732   -0.5593 C   0  0  0  0  0  0  0  0  0  0  0  0
    1.1654    0.1359    1.0485 C   0  0  0  0  0  0  0  0  0  0  0  0
    4.7174   -0.0675   -0.8936 C   0  0  0  0  0  0  0  0  0  0  0  0
   -1.4871   -0.5832    0.6636 C   0  0  0  0  0  0  0  0  0  0  0  0
   -0.9857    0.6376    0.3837 C   0  0  0  0  0  0  0  0  0  0  0  0
   -0.5504   -1.6066    1.2193 C   0  0  0  0  0  0  0  0  0  0  0  0
   -2.9000   -0.9508    0.4513 C   0  0  0  0  0  0  0  0  0  0  0  0
   -1.8521    1.7027   -0.1642 C   0  0  0  0  0  0  0  0  0  0  0  0
    1.7403   -2.1176    1.9254 C   0  0  0  0  0  0  0  0  0  0  0  0
    3.5455   -0.3943   -1.5757 C   0  0  0  0  0  0  0  0  0  0  0  0
    5.6104   -1.0721   -0.5205 C   0  0  0  0  0  0  0  0  0  0  0  0
   -3.3050   -1.4904   -0.7695 C   0  0  0  0  0  0  0  0  0  0  0  0
   -3.8307   -0.7589    1.4722 C   0  0  0  0  0  0  0  0  0  0  0  0
   -4.6409   -1.8382   -0.9693 C   0  0  0  0  0  0  0  0  0  0  0  0
    3.2665   -1.7257   -1.8845 C   0  0  0  0  0  0  0  0  0  0  0  0
    5.3313   -2.4033   -0.8294 C   0  0  0  0  0  0  0  0  0  0  0  0
   -5.1667   -1.1067    1.2725 C   0  0  0  0  0  0  0  0  0  0  0  0
   -2.5211    2.5684    0.6940 C   0  0  0  0  0  0  0  0  0  0  0  0
   -2.0000    1.8441   -1.5395 C   0  0  0  0  0  0  0  0  0  0  0  0
   -5.5718   -1.6464    0.0517 C   0  0  0  0  0  0  0  0  0  0  0  0
    4.1593   -2.7302   -1.5114 C   0  0  0  0  0  0  0  0  0  0  0  0
   -5.0741   -2.4156   -2.2744 C   0  0  0  0  0  0  0  0  0  0  0  0
   -3.3195    3.5510    0.1312 C   0  0  0  0  0  0  0  0  0  0  0  0
   -2.8218    2.8591   -2.0025 C   0  0  0  0  0  0  0  0  0  0  0  0
    4.9196    1.2403    1.6045 H   0  0  0  0  0  0  0  0  0  0  0  0
    2.5109    2.1891   -0.0305 H   0  0  0  0  0  0  0  0  0  0  0  0
    2.6080    2.4943    1.7022 H   0  0  0  0  0  0  0  0  0  0  0  0
    4.6280    2.0116   -1.3640 H   0  0  0  0  0  0  0  0  0  0  0  0
    6.1099    1.5106   -0.5934 H   0  0  0  0  0  0  0  0  0  0  0  0
    3.1419   -0.1363    1.6449 H   0  0  0  0  0  0  0  0  0  0  0  0
    4.6521    3.5621    1.9212 H   0  0  0  0  0  0  0  0  0  0  0  0
    5.9513    3.2667    0.9818 H   0  0  0  0  0  0  0  0  0  0  0  0
    2.5614   -2.2337    1.2131 H   0  0  0  0  0  0  0  0  0  0  0  0
    1.2988   -3.0983    2.1187 H   0  0  0  0  0  0  0  0  0  0  0  0
    2.1388   -1.7172    2.8629 H   0  0  0  0  0  0  0  0  0  0  0  0
    2.8433    0.3778   -1.8786 H   0  0  0  0  0  0  0  0  0  0  0  0
    6.5253   -0.8303    0.0137 H   0  0  0  0  0  0  0  0  0  0  0  0
   -2.5815   -1.6408   -1.5682 H   0  0  0  0  0  0  0  0  0  0  0  0
   -3.5301   -0.3403    2.4297 H   0  0  0  0  0  0  0  0  0  0  0  0
    2.3534   -1.9799   -2.4149 H   0  0  0  0  0  0  0  0  0  0  0  0
    6.0258   -3.1857   -0.5377 H   0  0  0  0  0  0  0  0  0  0  0  0
   -5.8915   -0.9569    2.0674 H   0  0  0  0  0  0  0  0  0  0  0  0
   -2.4293    2.4899    1.7724 H   0  0  0  0  0  0  0  0  0  0  0  0
   -1.4931    1.1885   -2.2402 H   0  0  0  0  0  0  0  0  0  0  0  0
   -6.6159   -1.9115   -0.0919 H   0  0  0  0  0  0  0  0  0  0  0  0
    3.9413   -3.7668   -1.7509 H   0  0  0  0  0  0  0  0  0  0  0  0
   -5.3153   -1.6130   -2.9783 H   0  0  0  0  0  0  0  0  0  0  0  0
   -4.2859   -3.0403   -2.7085 H   0  0  0  0  0  0  0  0  0  0  0  0
   -5.9573   -3.0522   -2.1541 H   0  0  0  0  0  0  0  0  0  0  0  0
   -3.8624    4.2514    0.7571 H   0  0  0  0  0  0  0  0  0  0  0  0
   -2.9705    3.0114   -3.0664 H   0  0  0  0  0  0  0  0  0  0  0  0
  1 14  2  0  0  0  0
  2  8  1  0  0  0  0
  2 10  1  0  0  0  0
  2 38  1  0  0  0  0
  3 10  1  0  0  0  0
  3 14  1  0  0  0  0
  3 17  1  0  0  0  0
  4  7  1  0  0  0  0
  4 39  1  0  0  0  0
  4 40  1  0  0  0  0
  5 10  2  0  0  0  0
  5 13  1  0  0  0  0
  6 31  2  0  0  0  0
  6 32  1  0  0  0  0
  7  8  1  0  0  0  0
  7  9  1  0  0  0  0
  7 33  1  0  0  0  0
  8 34  1  0  0  0  0
  8 35  1  0  0  0  0
  9 11  1  0  0  0  0
  9 36  1  0  0  0  0
  9 37  1  0  0  0  0
 11 18  2  0  0  0  0
 11 19  1  0  0  0  0
 12 13  2  0  0  0  0
 12 14  1  0  0  0  0
 12 15  1  0  0  0  0
 13 16  1  0  0  0  0
 15 20  1  0  0  0  0
 15 21  2  0  0  0  0
 16 26  2  0  0  0  0
 16 27  1  0  0  0  0
 17 41  1  0  0  0  0
 17 42  1  0  0  0  0
 17 43  1  0  0  0  0
 18 23  1  0  0  0  0
 18 44  1  0  0  0  0
 19 24  2  0  0  0  0
 19 45  1  0  0  0  0
 20 22  2  0  0  0  0
 20 46  1  0  0  0  0
 21 25  1  0  0  0  0
 21 47  1  0  0  0  0
 22 28  1  0  0  0  0
 22 30  1  0  0  0  0
 23 29  2  0  0  0  0
 23 48  1  0  0  0  0
 24 29  1  0  0  0  0
 24 49  1  0  0  0  0
 25 28  2  0  0  0  0
 25 50  1  0  0  0  0
 26 31  1  0  0  0  0
 26 51  1  0  0  0  0
 27 32  2  0  0  0  0
 27 52  1  0  0  0  0
 28 53  1  0  0  0  0
 29 54  1  0  0  0  0
 30 55  1  0  0  0  0
 30 56  1  0  0  0  0
 30 57  1  0  0  0  0
 31 58  1  0  0  0  0
 32 59  1  0  0  0  0
M  END
> <PUBCHEM_COMPOUND_CID>
18767859

> <PUBCHEM_CONFORMER_RMSD>
1

> <PUBCHEM_CONFORMER_DIVERSEORDER>
1
55
52
29
61
41
33
75
68
35
70
66
47
65
38
53
50
71
46
42
9
34
20
40
39
23
49
24
74
57
64
69
56
72
30
15
59
28
63
17
44
62
73
58
54
60
48
51
45
36
16
3
12
27
21
67
10
19
32
76
5
25
18
14
37
26
22
13
43
31
11
7
8
4
6
2

> <PUBCHEM_MMFF94_PARTIAL_CHARGES>
48
1 -0.57
10 0.56
11 -0.14
12 -0.01
13 0.14
14 0.62
15 0.03
16 0.03
17 0.3
18 -0.15
19 -0.15
2 -0.82
20 -0.15
21 -0.15
22 -0.14
23 -0.15
24 -0.15
25 -0.15
26 -0.15
27 -0.15
28 -0.15
29 -0.15
3 -0.42
30 0.14
31 0.16
32 0.16
38 0.4
39 0.36
4 -0.99
40 0.36
44 0.15
45 0.15
46 0.15
47 0.15
48 0.15
49 0.15
5 -0.62
50 0.15
51 0.15
52 0.15
53 0.15
54 0.15
58 0.15
59 0.15
6 -0.62
7 0.27
8 0.37
9 0.14

> <PUBCHEM_EFFECTIVE_ROTOR_COUNT>
7

> <PUBCHEM_PHARMACOPHORE_FEATURES>
9
1 1 acceptor
1 2 donor
1 4 cation
1 4 donor
1 6 acceptor
6 11 18 19 23 24 29 rings
6 15 20 21 22 25 28 rings
6 3 5 10 12 13 14 rings
6 6 16 26 27 31 32 rings

> <PUBCHEM_HEAVY_ATOM_COUNT>
32

> <PUBCHEM_ATOM_DEF_STEREO_COUNT>
0

> <PUBCHEM_ATOM_UDEF_STEREO_COUNT>
1

> <PUBCHEM_BOND_DEF_STEREO_COUNT>
0

> <PUBCHEM_BOND_UDEF_STEREO_COUNT>
0

> <PUBCHEM_ISOTOPIC_ATOM_COUNT>
0

> <PUBCHEM_COMPONENT_COUNT>
1

> <PUBCHEM_CACTVS_TAUTO_COUNT>
3

> <PUBCHEM_CONFORMER_ID>
011E5FF300000001

> <PUBCHEM_MMFF94_ENERGY>
91.5262

> <PUBCHEM_FEATURE_SELFOVERLAP>
45.672

> <PUBCHEM_SHAPE_FINGERPRINT>
10190108 129 17897757321741211513
10670039 82 17749111076116973188
11331351 85 18200881785904276713
11796584 16 16200165329918291223
12107698 1 18412824694576375302
12633046 712 16988838367627847363
12788726 201 18189318204186157345
131258 38 14900532871198232759
13140716 1 17971457525425713793
1361 2 17770495653664426144
13617811 41 17895199951836196111
13782708 43 18411143519859936654
13911987 19 17823123700613769619
13944108 23 16389298548394175932
14251757 17 18341057315858086064
14347332 77 18341892978458795939
14910302 57 18202557401915338091
14955137 171 18044956794668255195
15219462 58 18040438758954455659
15276724 80 18413394228704112015
15324884 4 17403754727568035304
15361156 5 18339658809517502892
21641784 216 17749100093885890157
22393880 68 18262515884254652416
23559900 14 18199188383083058842
23569914 152 17619602723806892935
244849 19 17774703308454163344
25147074 1 17896028841643005907
283562 15 18261381287392710633
350125 39 18261115110751657889
4098825 35 18340495491286459040
460360 51 18042116566558906946
46194498 28 18272094911545344054
469060 322 17603876611069362161
508706 21 18041290889224130074
5252454 2 17825108103768173181
70251023 43 18341608287089475255
7399639 24 18056469780622257248

> <PUBCHEM_SHAPE_MULTIPOLES>
627.77
13.38
4.21
1.99
6.27
2.71
-0.43
-3.81
-3.86
-1.67
-0.98
-0.55
-0.65
2.04

> <PUBCHEM_SHAPE_SELFOVERLAP>
1362.255

> <PUBCHEM_SHAPE_VOLUME>
340

> <PUBCHEM_COORDINATE_TYPE>
2
5
10

$$$$
