11719305
  -OEChem-10062122003D

 54 56  0     1  0  0  0  0  0999 V2000
    5.2684   -3.9433    1.3502 Cl  0  0  0  0  0  0  0  0  0  0  0  0
    3.0820   -2.0318    1.8974 F   0  0  0  0  0  0  0  0  0  0  0  0
   -4.6731   -3.6677   -0.8706 O   0  0  0  0  0  0  0  0  0  0  0  0
   -3.1355    3.4416   -0.2017 O   0  0  0  0  0  0  0  0  0  0  0  0
   -2.9776   -2.3151    1.8229 O   0  0  0  0  0  0  0  0  0  0  0  0
   -2.6541   -0.5922   -0.5348 N   0  0  2  0  0  0  0  0  0  0  0  0
    2.3079    0.1335    0.3511 N   0  0  0  0  0  0  0  0  0  0  0  0
    1.5698    4.1560   -0.2848 N   0  0  0  0  0  0  0  0  0  0  0  0
   -5.0696   -1.3752    1.7249 N   0  0  0  0  0  0  0  0  0  0  0  0
    3.1037    2.3214    0.0127 N   0  0  0  0  0  0  0  0  0  0  0  0
   -3.7815   -1.4985   -0.3221 C   0  0  1  0  0  0  0  0  0  0  0  0
   -2.8333    0.6363    0.2402 C   0  0  0  0  0  0  0  0  0  0  0  0
   -1.6764    1.5689    0.1011 C   0  0  0  0  0  0  0  0  0  0  0  0
   -3.5635   -2.8023   -1.0865 C   0  0  0  0  0  0  0  0  0  0  0  0
   -0.3799    1.0711    0.1872 C   0  0  0  0  0  0  0  0  0  0  0  0
   -2.5080   -0.2818   -1.9562 C   0  0  0  0  0  0  0  0  0  0  0  0
   -1.8765    2.9280   -0.1136 C   0  0  0  0  0  0  0  0  0  0  0  0
    0.7170    1.9406    0.0576 C   0  0  0  0  0  0  0  0  0  0  0  0
   -3.8704   -1.7746    1.1737 C   0  0  0  0  0  0  0  0  0  0  0  0
    0.5278    3.3153   -0.1593 C   0  0  0  0  0  0  0  0  0  0  0  0
   -0.7803    3.7863   -0.2414 C   0  0  0  0  0  0  0  0  0  0  0  0
    2.0380    1.5076    0.1338 C   0  0  0  0  0  0  0  0  0  0  0  0
    2.8008    3.6136   -0.1916 C   0  0  0  0  0  0  0  0  0  0  0  0
    3.3727   -0.6953   -0.0358 C   0  0  0  0  0  0  0  0  0  0  0  0
   -4.5099   -4.9019   -1.5544 C   0  0  0  0  0  0  0  0  0  0  0  0
   -3.7416    3.8828    1.0114 C   0  0  0  0  0  0  0  0  0  0  0  0
    3.7481   -1.7825    0.7595 C   0  0  0  0  0  0  0  0  0  0  0  0
    4.0666   -0.4373   -1.2220 C   0  0  0  0  0  0  0  0  0  0  0  0
    4.8070   -2.6035    0.3723 C   0  0  0  0  0  0  0  0  0  0  0  0
    5.1256   -1.2585   -1.6091 C   0  0  0  0  0  0  0  0  0  0  0  0
    5.4958   -2.3415   -0.8120 C   0  0  0  0  0  0  0  0  0  0  0  0
   -4.7236   -1.0470   -0.6631 H   0  0  0  0  0  0  0  0  0  0  0  0
   -3.7737    1.1170   -0.0574 H   0  0  0  0  0  0  0  0  0  0  0  0
   -2.9081    0.4390    1.3161 H   0  0  0  0  0  0  0  0  0  0  0  0
   -3.5024   -2.6362   -2.1661 H   0  0  0  0  0  0  0  0  0  0  0  0
   -2.6457   -3.3034   -0.7531 H   0  0  0  0  0  0  0  0  0  0  0  0
   -0.2321    0.0091    0.3639 H   0  0  0  0  0  0  0  0  0  0  0  0
   -3.4473    0.0656   -2.4030 H   0  0  0  0  0  0  0  0  0  0  0  0
   -1.7522    0.4833   -2.1607 H   0  0  0  0  0  0  0  0  0  0  0  0
   -2.1473   -1.1473   -2.5208 H   0  0  0  0  0  0  0  0  0  0  0  0
   -0.9561    4.8478   -0.4101 H   0  0  0  0  0  0  0  0  0  0  0  0
    1.7379   -0.2700    1.0898 H   0  0  0  0  0  0  0  0  0  0  0  0
   -5.8042   -0.9318    1.1830 H   0  0  0  0  0  0  0  0  0  0  0  0
   -5.2559   -1.5096    2.7132 H   0  0  0  0  0  0  0  0  0  0  0  0
    3.6359    4.2959   -0.2939 H   0  0  0  0  0  0  0  0  0  0  0  0
   -3.6182   -5.4252   -1.1960 H   0  0  0  0  0  0  0  0  0  0  0  0
   -4.4431   -4.7385   -2.6344 H   0  0  0  0  0  0  0  0  0  0  0  0
   -5.3844   -5.5258   -1.3509 H   0  0  0  0  0  0  0  0  0  0  0  0
   -3.1827    4.7249    1.4316 H   0  0  0  0  0  0  0  0  0  0  0  0
   -4.7578    4.2164    0.7846 H   0  0  0  0  0  0  0  0  0  0  0  0
   -3.7958    3.0684    1.7407 H   0  0  0  0  0  0  0  0  0  0  0  0
    3.7896    0.3915   -1.8682 H   0  0  0  0  0  0  0  0  0  0  0  0
    5.6598   -1.0565   -2.5330 H   0  0  0  0  0  0  0  0  0  0  0  0
    6.3224   -2.9732   -1.1271 H   0  0  0  0  0  0  0  0  0  0  0  0
  1 29  1  0  0  0  0
  2 27  1  0  0  0  0
  3 14  1  0  0  0  0
  3 25  1  0  0  0  0
  4 17  1  0  0  0  0
  4 26  1  0  0  0  0
  5 19  2  0  0  0  0
  6 11  1  0  0  0  0
  6 12  1  0  0  0  0
  6 16  1  0  0  0  0
  7 22  1  0  0  0  0
  7 24  1  0  0  0  0
  7 42  1  0  0  0  0
  8 20  1  0  0  0  0
  8 23  2  0  0  0  0
  9 19  1  0  0  0  0
  9 43  1  0  0  0  0
  9 44  1  0  0  0  0
 10 22  2  0  0  0  0
 10 23  1  0  0  0  0
 11 14  1  0  0  0  0
 11 19  1  0  0  0  0
 11 32  1  0  0  0  0
 12 13  1  0  0  0  0
 12 33  1  0  0  0  0
 12 34  1  0  0  0  0
 13 15  2  0  0  0  0
 13 17  1  0  0  0  0
 14 35  1  0  0  0  0
 14 36  1  0  0  0  0
 15 18  1  0  0  0  0
 15 37  1  0  0  0  0
 16 38  1  0  0  0  0
 16 39  1  0  0  0  0
 16 40  1  0  0  0  0
 17 21  2  0  0  0  0
 18 20  2  0  0  0  0
 18 22  1  0  0  0  0
 20 21  1  0  0  0  0
 21 41  1  0  0  0  0
 23 45  1  0  0  0  0
 24 27  2  0  0  0  0
 24 28  1  0  0  0  0
 25 46  1  0  0  0  0
 25 47  1  0  0  0  0
 25 48  1  0  0  0  0
 26 49  1  0  0  0  0
 26 50  1  0  0  0  0
 26 51  1  0  0  0  0
 27 29  1  0  0  0  0
 28 30  2  0  0  0  0
 28 52  1  0  0  0  0
 29 31  2  0  0  0  0
 30 31  1  0  0  0  0
 30 53  1  0  0  0  0
 31 54  1  0  0  0  0
M  END
> <PUBCHEM_COMPOUND_CID>
11719305

> <PUBCHEM_CONFORMER_RMSD>
1

> <PUBCHEM_CONFORMER_DIVERSEORDER>
1
192
84
67
158
149
146
165
210
144
93
145
105
178
166
208
40
46
92
64
21
99
87
199
108
200
172
129
90
20
155
187
22
123
91
125
83
189
81
195
13
202
15
10
118
85
206
194
204
132
162
140
164
182
51
86
153
134
191
147
179
205
27
161
141
180
173
154
133
183
3
175
71
77
121
167
148
75
109
18
160
55
97
94
5
96
190
68
29
32
49
14
120
159
131
197
139
80
174
138
101
107
169
39
36
171
188
119
203
24
89
59
122
34
26
209
43
19
104
128
8
7
28
42
102
79
73
30
50
117
156
170
136
54
116
207
72
2
12
113
78
193
41
9
198
201
60
31
16
35
137
106
185
111
168
53
6
100
186
63
37
115
211
181
44
57
69
56
45
163
184
130
23
82
157
142
25
48
88
177
52
151
58
62
76
103
127
66
196
110
124
61
152
11
70
33
74
4
47
65
112
95
143
135
114
17
176
150
38
98
126

> <PUBCHEM_MMFF94_PARTIAL_CHARGES>
39
1 -0.18
10 -0.62
11 0.33
12 0.41
13 -0.14
14 0.28
15 -0.15
16 0.27
17 0.08
19 0.57
2 -0.19
20 0.31
21 -0.15
22 0.41
23 0.47
24 0.1
25 0.28
26 0.28
27 0.19
28 -0.15
29 0.18
3 -0.56
30 -0.15
31 -0.15
37 0.15
4 -0.36
41 0.15
42 0.4
43 0.37
44 0.37
45 0.15
5 -0.57
52 0.15
53 0.15
54 0.15
6 -0.81
7 -0.6
8 -0.62
9 -0.8

> <PUBCHEM_EFFECTIVE_ROTOR_COUNT>
9

> <PUBCHEM_PHARMACOPHORE_FEATURES>
11
1 3 acceptor
1 4 acceptor
1 5 acceptor
1 6 cation
1 7 donor
1 9 donor
3 7 10 22 cation
3 8 10 23 cation
6 13 15 17 18 20 21 rings
6 24 27 28 29 30 31 rings
6 8 10 18 20 22 23 rings

> <PUBCHEM_HEAVY_ATOM_COUNT>
31

> <PUBCHEM_ATOM_DEF_STEREO_COUNT>
1

> <PUBCHEM_ATOM_UDEF_STEREO_COUNT>
0

> <PUBCHEM_BOND_DEF_STEREO_COUNT>
0

> <PUBCHEM_BOND_UDEF_STEREO_COUNT>
0

> <PUBCHEM_ISOTOPIC_ATOM_COUNT>
0

> <PUBCHEM_COMPONENT_COUNT>
1

> <PUBCHEM_CACTVS_TAUTO_COUNT>
6

> <PUBCHEM_CONFORMER_ID>
00B2D28900000001

> <PUBCHEM_MMFF94_ENERGY>
118.2614

> <PUBCHEM_FEATURE_SELFOVERLAP>
55.993

> <PUBCHEM_SHAPE_FINGERPRINT>
10622 236 17771616026307698751
10928967 22 18410866438376651258
11991303 11 17969782978534682141
12107183 9 18270979994101882395
12553582 1 18264485075347075888
13140716 1 18340768131083295696
13690498 29 18336844004205959276
13726171 33 18056511424767876604
13911987 19 17396428676533169389
14251757 5 18120094983499578764
14844126 61 18264766549975737795
14863182 85 17903080267753557308
14866123 147 18265055722156075193
14904385 45 18334858363695695467
15250474 111 18117836604181481562
15320294 125 17611180464806777374
16728300 4 16885540122018878321
17492 89 18340764943942540956
19319366 153 17316774169989541562
20775530 9 18187365441122094678
21703447 108 18269542991848677416
23559900 14 18411128130486018225
3178227 256 17976557026661219481
3383291 50 18198897016680556015
3737641 26 18265906936859984289
44062 13 18266744584463215270
44880168 125 17702674232920518318
463206 1 18118686513625854610
508706 21 18058168328049353214
5309563 4 18196653118958011711
5486654 36 18335989661938014025
56633871 153 18272098218697113759
70251023 43 18337667641610663123
7970288 3 18412823586190853486
86090 222 17026282412485572035

> <PUBCHEM_SHAPE_MULTIPOLES>
590.05
12.3
7.12
1.48
7.9
0.13
0.09
-15.11
0.32
-5.05
-0.61
-0.32
-1.53
-2.5

> <PUBCHEM_SHAPE_SELFOVERLAP>
1256.258

> <PUBCHEM_SHAPE_VOLUME>
330.6

> <PUBCHEM_COORDINATE_TYPE>
2
5
10

$$$$
