17748275
  -OEChem-10052120443D

 58 61  0     0  0  0  0  0  0999 V2000
   -7.4811    1.0378   -0.6441 F   0  0  0  0  0  0  0  0  0  0  0  0
   -7.3032    0.8873    1.5449 F   0  0  0  0  0  0  0  0  0  0  0  0
   -8.1693   -1.5986   -0.7804 F   0  0  0  0  0  0  0  0  0  0  0  0
   -9.4729   -0.4022    0.4881 F   0  0  0  0  0  0  0  0  0  0  0  0
    3.7838   -1.3906   -0.4196 O   0  0  0  0  0  0  0  0  0  0  0  0
   -5.8974   -0.3407    0.2451 O   0  0  0  0  0  0  0  0  0  0  0  0
   -0.1624    1.0254    0.3910 O   0  0  0  0  0  0  0  0  0  0  0  0
   -0.9885   -0.8513   -0.7495 N   0  0  0  0  0  0  0  0  0  0  0  0
    3.5074   -2.1674    1.7479 N   0  0  0  0  0  0  0  0  0  0  0  0
    4.0791    1.5709   -0.3167 N   0  0  0  0  0  0  0  0  0  0  0  0
    6.3104    1.3203    0.5296 N   0  0  0  0  0  0  0  0  0  0  0  0
    3.6643    3.1451   -2.0046 N   0  0  0  0  0  0  0  0  0  0  0  0
    5.8553    2.9219   -1.1983 N   0  0  0  0  0  0  0  0  0  0  0  0
    2.5793   -1.8681   -0.8412 C   0  0  0  0  0  0  0  0  0  0  0  0
    2.4923   -3.0832   -1.5207 C   0  0  0  0  0  0  0  0  0  0  0  0
    0.1838   -1.6032   -1.0085 C   0  0  0  0  0  0  0  0  0  0  0  0
    1.4251   -1.1280   -0.5852 C   0  0  0  0  0  0  0  0  0  0  0  0
    1.2511   -3.5583   -1.9441 C   0  0  0  0  0  0  0  0  0  0  0  0
    0.0968   -2.8182   -1.6879 C   0  0  0  0  0  0  0  0  0  0  0  0
   -2.4598    0.8969    0.0498 C   0  0  0  0  0  0  0  0  0  0  0  0
    3.7171   -3.8889   -1.8029 C   0  0  0  0  0  0  0  0  0  0  0  0
   -1.1079    0.3792   -0.0886 C   0  0  0  0  0  0  0  0  0  0  0  0
    3.9515   -1.1801    0.9381 C   0  0  0  0  0  0  0  0  0  0  0  0
    4.5432   -0.0122    1.3916 C   0  0  0  0  0  0  0  0  0  0  0  0
   -3.5434    0.0189    0.0810 C   0  0  0  0  0  0  0  0  0  0  0  0
   -4.8398    0.5157    0.2145 C   0  0  0  0  0  0  0  0  0  0  0  0
   -2.6730    2.2715    0.1520 C   0  0  0  0  0  0  0  0  0  0  0  0
   -5.0528    1.8904    0.3168 C   0  0  0  0  0  0  0  0  0  0  0  0
   -3.9695    2.7684    0.2855 C   0  0  0  0  0  0  0  0  0  0  0  0
    4.6888    0.1531    2.7645 C   0  0  0  0  0  0  0  0  0  0  0  0
    5.0030    1.0170    0.4850 C   0  0  0  0  0  0  0  0  0  0  0  0
    4.2444   -0.8405    3.6297 C   0  0  0  0  0  0  0  0  0  0  0  0
   -7.2137    0.1961    0.3826 C   0  0  0  0  0  0  0  0  0  0  0  0
    3.6659   -1.9714    3.0761 C   0  0  0  0  0  0  0  0  0  0  0  0
   -8.2244   -0.9217    0.3933 C   0  0  0  0  0  0  0  0  0  0  0  0
    4.5774    2.5150   -1.1310 C   0  0  0  0  0  0  0  0  0  0  0  0
    6.6644    2.2808   -0.3396 C   0  0  0  0  0  0  0  0  0  0  0  0
    2.2746    2.8130   -2.0444 C   0  0  0  0  0  0  0  0  0  0  0  0
    1.5547   -0.1881   -0.0685 H   0  0  0  0  0  0  0  0  0  0  0  0
    1.1660   -4.5032   -2.4740 H   0  0  0  0  0  0  0  0  0  0  0  0
   -0.8641   -3.2002   -2.0231 H   0  0  0  0  0  0  0  0  0  0  0  0
   -1.8277   -1.2711   -1.1396 H   0  0  0  0  0  0  0  0  0  0  0  0
    3.4900   -4.7886   -2.3848 H   0  0  0  0  0  0  0  0  0  0  0  0
    4.1844   -4.2096   -0.8661 H   0  0  0  0  0  0  0  0  0  0  0  0
    4.4371   -3.2991   -2.3799 H   0  0  0  0  0  0  0  0  0  0  0  0
   -3.4190   -1.0597    0.0427 H   0  0  0  0  0  0  0  0  0  0  0  0
   -1.8433    2.9732    0.1245 H   0  0  0  0  0  0  0  0  0  0  0  0
   -6.0274    2.3515    0.4239 H   0  0  0  0  0  0  0  0  0  0  0  0
   -4.1344    3.8392    0.3640 H   0  0  0  0  0  0  0  0  0  0  0  0
    5.1426    1.0501    3.1786 H   0  0  0  0  0  0  0  0  0  0  0  0
    4.3464   -0.7329    4.7035 H   0  0  0  0  0  0  0  0  0  0  0  0
    3.3024   -2.7753    3.7077 H   0  0  0  0  0  0  0  0  0  0  0  0
   -8.0664   -1.6261    1.2144 H   0  0  0  0  0  0  0  0  0  0  0  0
    7.7085    2.5675   -0.3486 H   0  0  0  0  0  0  0  0  0  0  0  0
    4.0346    3.8585   -2.6211 H   0  0  0  0  0  0  0  0  0  0  0  0
    1.7936    2.9991   -1.0785 H   0  0  0  0  0  0  0  0  0  0  0  0
    2.1247    1.7641   -2.3206 H   0  0  0  0  0  0  0  0  0  0  0  0
    1.7664    3.4292   -2.7926 H   0  0  0  0  0  0  0  0  0  0  0  0
  1 33  1  0  0  0  0
  2 33  1  0  0  0  0
  3 35  1  0  0  0  0
  4 35  1  0  0  0  0
  5 14  1  0  0  0  0
  5 23  1  0  0  0  0
  6 26  1  0  0  0  0
  6 33  1  0  0  0  0
  7 22  2  0  0  0  0
  8 16  1  0  0  0  0
  8 22  1  0  0  0  0
  8 42  1  0  0  0  0
  9 23  1  0  0  0  0
  9 34  2  0  0  0  0
 10 31  2  0  0  0  0
 10 36  1  0  0  0  0
 11 31  1  0  0  0  0
 11 37  2  0  0  0  0
 12 36  1  0  0  0  0
 12 38  1  0  0  0  0
 12 55  1  0  0  0  0
 13 36  2  0  0  0  0
 13 37  1  0  0  0  0
 14 15  2  0  0  0  0
 14 17  1  0  0  0  0
 15 18  1  0  0  0  0
 15 21  1  0  0  0  0
 16 17  2  0  0  0  0
 16 19  1  0  0  0  0
 17 39  1  0  0  0  0
 18 19  2  0  0  0  0
 18 40  1  0  0  0  0
 19 41  1  0  0  0  0
 20 22  1  0  0  0  0
 20 25  2  0  0  0  0
 20 27  1  0  0  0  0
 21 43  1  0  0  0  0
 21 44  1  0  0  0  0
 21 45  1  0  0  0  0
 23 24  2  0  0  0  0
 24 30  1  0  0  0  0
 24 31  1  0  0  0  0
 25 26  1  0  0  0  0
 25 46  1  0  0  0  0
 26 28  2  0  0  0  0
 27 29  2  0  0  0  0
 27 47  1  0  0  0  0
 28 29  1  0  0  0  0
 28 48  1  0  0  0  0
 29 49  1  0  0  0  0
 30 32  2  0  0  0  0
 30 50  1  0  0  0  0
 32 34  1  0  0  0  0
 32 51  1  0  0  0  0
 33 35  1  0  0  0  0
 34 52  1  0  0  0  0
 35 53  1  0  0  0  0
 37 54  1  0  0  0  0
 38 56  1  0  0  0  0
 38 57  1  0  0  0  0
 38 58  1  0  0  0  0
M  END
> <PUBCHEM_COMPOUND_CID>
17748275

> <PUBCHEM_CONFORMER_RMSD>
1.2

> <PUBCHEM_CONFORMER_DIVERSEORDER>
4
17
42
102
97
121
125
54
81
95
73
77
13
58
87
108
71
38
37
9
51
60
28
89
112
16
57
92
127
63
80
11
2
98
68
93
10
106
99
19
15
105
101
59
40
131
8
46
113
133
7
49
39
33
48
30
86
22
65
41
75
25
88
96
109
43
117
3
129
62
114
69
47
107
100
56
103
36
128
18
6
104
70
31
34
126
74
50
110
137
91
14
94
111
12
130
115
136
120
118
45
27
1
132
64
72
84
134
21
5
66
76
24
53
44
90
35
20
135
83
61
52
124
23
85
55
32
116
119
29
67
123
78
79
26
82
122

> <PUBCHEM_MMFF94_PARTIAL_CHARGES>
50
1 -0.34
10 -0.62
11 -0.62
12 -0.87
13 -0.62
14 0.08
15 -0.14
16 0.12
17 -0.15
18 -0.15
19 -0.15
2 -0.34
20 0.09
21 0.14
22 0.54
23 0.39
25 -0.15
26 0.08
27 -0.15
28 -0.15
29 -0.15
3 -0.34
30 -0.15
31 0.62
32 -0.15
33 0.96
34 0.16
35 0.68
36 0.72
37 0.47
38 0.37
39 0.15
4 -0.34
40 0.15
41 0.15
42 0.37
46 0.15
47 0.15
48 0.15
49 0.15
5 -0.17
50 0.15
51 0.15
52 0.15
54 0.15
55 0.4
6 -0.36
7 -0.57
8 -0.55
9 -0.62

> <PUBCHEM_EFFECTIVE_ROTOR_COUNT>
10

> <PUBCHEM_PHARMACOPHORE_FEATURES>
11
1 12 donor
1 5 acceptor
1 6 acceptor
1 7 acceptor
1 8 donor
1 9 acceptor
4 10 12 13 36 cation
6 10 11 13 31 36 37 rings
6 14 15 16 17 18 19 rings
6 20 25 26 27 28 29 rings
6 9 23 24 30 32 34 rings

> <PUBCHEM_HEAVY_ATOM_COUNT>
38

> <PUBCHEM_ATOM_DEF_STEREO_COUNT>
0

> <PUBCHEM_ATOM_UDEF_STEREO_COUNT>
0

> <PUBCHEM_BOND_DEF_STEREO_COUNT>
0

> <PUBCHEM_BOND_UDEF_STEREO_COUNT>
0

> <PUBCHEM_ISOTOPIC_ATOM_COUNT>
0

> <PUBCHEM_COMPONENT_COUNT>
1

> <PUBCHEM_CACTVS_TAUTO_COUNT>
8

> <PUBCHEM_CONFORMER_ID>
010ED13300000004

> <PUBCHEM_MMFF94_ENERGY>
125.4692

> <PUBCHEM_FEATURE_SELFOVERLAP>
55.869

> <PUBCHEM_SHAPE_FINGERPRINT>
10165383 225 17988922280629187858
10985338 15 16773506754643038846
11443803 9 18338237180655910888
1200032 147 18409735097457524090
12120059 20 18269284624661351151
12373685 5 15647626695292630211
12708847 88 17531248425772063669
13111901 25 18338796831599526527
13965767 371 18197187332224161330
14114211 68 17989215854259804478
14118638 360 18261116257556086737
14294032 229 17987798669017222598
1454969 45 18272088331771380911
15297060 5 18060416954725497098
15392192 104 18272661173235269739
15484559 13 17896055393912116924
1979834 28 18272644611218643608
21049683 271 17913217464873169478
21716022 299 16556804970894108030
21814621 53 16444165566273579103
22149856 69 18059868216871586897
23559900 14 17983017751861940190
25222932 49 17676768670039495408
44880568 143 18263361396687795389
5104073 3 17772187514724045883
5109719 28 18336274478984648657
57816373 69 17606109589666782090
6523845 18 17561365084760119474
8988823 20 17530681000620331986
9658208 31 17346025779752855102
9849439 229 17987786532114266482

> <PUBCHEM_SHAPE_MULTIPOLES>
705.43
21.64
4.2
2.43
52.7
1.24
1.97
-6.47
5.8
-5.76
-3.31
-5.26
0.98
-1.93

> <PUBCHEM_SHAPE_SELFOVERLAP>
1545.949

> <PUBCHEM_SHAPE_VOLUME>
378.9

> <PUBCHEM_COORDINATE_TYPE>
2
5
10

$$$$
