49830403
  -OEChem-10052120443D

 48 52  0     1  0  0  0  0  0999 V2000
    6.5401    2.0156   -0.7491 F   0  0  0  0  0  0  0  0  0  0  0  0
    0.2379   -4.1627   -0.2073 O   0  0  0  0  0  0  0  0  0  0  0  0
    0.1363   -2.0134    0.3498 N   0  0  0  0  0  0  0  0  0  0  0  0
   -2.2327    2.6086   -0.0843 N   0  0  0  0  0  0  0  0  0  0  0  0
    2.1239   -2.6379   -0.4492 N   0  0  0  0  0  0  0  0  0  0  0  0
   -0.6682    0.8788    0.1716 N   0  0  0  0  0  0  0  0  0  0  0  0
   -0.6434    2.7958    1.6318 N   0  0  0  0  0  0  0  0  0  0  0  0
    0.8763   -0.8813    0.3848 C   0  0  0  0  0  0  0  0  0  0  0  0
    2.1077   -1.2894   -0.1152 C   0  0  0  0  0  0  0  0  0  0  0  0
   -2.8521    1.9504   -1.1916 C   0  0  1  0  0  0  0  0  0  0  0  0
    0.3886    0.3916    0.8544 C   0  0  0  0  0  0  0  0  0  0  0  0
    0.9129   -3.0098   -0.1458 C   0  0  0  0  0  0  0  0  0  0  0  0
   -3.7651    0.8472   -0.7011 C   0  0  0  0  0  0  0  0  0  0  0  0
    3.2514   -0.4366   -0.2788 C   0  0  0  0  0  0  0  0  0  0  0  0
   -1.1072   -2.5130    0.6325 C   0  0  0  0  0  0  0  0  0  0  0  0
   -1.1268    2.0678    0.6072 C   0  0  0  0  0  0  0  0  0  0  0  0
   -3.5730    2.9867   -2.0513 C   0  0  0  0  0  0  0  0  0  0  0  0
    0.9764    1.0393    1.9217 C   0  0  0  0  0  0  0  0  0  0  0  0
   -1.0432   -3.8110    0.2951 C   0  0  0  0  0  0  0  0  0  0  0  0
   -4.4364    0.9853    0.5138 C   0  0  0  0  0  0  0  0  0  0  0  0
   -3.9353   -0.3076   -1.4646 C   0  0  0  0  0  0  0  0  0  0  0  0
    3.1751    0.6807   -1.1105 C   0  0  0  0  0  0  0  0  0  0  0  0
    4.4387   -0.7253    0.3942 C   0  0  0  0  0  0  0  0  0  0  0  0
    0.4128    2.2498    2.2696 C   0  0  0  0  0  0  0  0  0  0  0  0
   -5.2781   -0.0314    0.9651 C   0  0  0  0  0  0  0  0  0  0  0  0
   -4.7771   -1.3243   -1.0134 C   0  0  0  0  0  0  0  0  0  0  0  0
    4.2860    1.5090   -1.2695 C   0  0  0  0  0  0  0  0  0  0  0  0
    5.5496    0.1030    0.2352 C   0  0  0  0  0  0  0  0  0  0  0  0
   -5.4484   -1.1861    0.2016 C   0  0  0  0  0  0  0  0  0  0  0  0
    5.4733    1.2202   -0.5966 C   0  0  0  0  0  0  0  0  0  0  0  0
   -2.0766    1.5089   -1.8325 H   0  0  0  0  0  0  0  0  0  0  0  0
   -2.6016    3.4849    0.2676 H   0  0  0  0  0  0  0  0  0  0  0  0
   -1.9169   -1.9318    1.0384 H   0  0  0  0  0  0  0  0  0  0  0  0
   -4.3707    3.4884   -1.4910 H   0  0  0  0  0  0  0  0  0  0  0  0
   -2.8773    3.7582   -2.3997 H   0  0  0  0  0  0  0  0  0  0  0  0
   -4.0299    2.5190   -2.9303 H   0  0  0  0  0  0  0  0  0  0  0  0
    1.8223    0.6369    2.4650 H   0  0  0  0  0  0  0  0  0  0  0  0
   -1.7683   -4.6009    0.3382 H   0  0  0  0  0  0  0  0  0  0  0  0
   -4.3415    1.8793    1.1237 H   0  0  0  0  0  0  0  0  0  0  0  0
   -3.4184   -0.4272   -2.4130 H   0  0  0  0  0  0  0  0  0  0  0  0
    2.2621    0.9202   -1.6505 H   0  0  0  0  0  0  0  0  0  0  0  0
    4.5148   -1.5911    1.0478 H   0  0  0  0  0  0  0  0  0  0  0  0
    0.8063    2.8315    3.0964 H   0  0  0  0  0  0  0  0  0  0  0  0
   -5.8042    0.0776    1.9090 H   0  0  0  0  0  0  0  0  0  0  0  0
   -4.9094   -2.2237   -1.6076 H   0  0  0  0  0  0  0  0  0  0  0  0
    4.2275    2.3780   -1.9181 H   0  0  0  0  0  0  0  0  0  0  0  0
    6.4741   -0.1211    0.7592 H   0  0  0  0  0  0  0  0  0  0  0  0
   -6.1041   -1.9775    0.5526 H   0  0  0  0  0  0  0  0  0  0  0  0
  1 30  1  0  0  0  0
  2 12  1  0  0  0  0
  2 19  1  0  0  0  0
  3  8  1  0  0  0  0
  3 12  1  0  0  0  0
  3 15  1  0  0  0  0
  4 10  1  0  0  0  0
  4 16  1  0  0  0  0
  4 32  1  0  0  0  0
  5  9  1  0  0  0  0
  5 12  2  0  0  0  0
  6 11  2  0  0  0  0
  6 16  1  0  0  0  0
  7 16  2  0  0  0  0
  7 24  1  0  0  0  0
  8  9  2  0  0  0  0
  8 11  1  0  0  0  0
  9 14  1  0  0  0  0
 10 13  1  0  0  0  0
 10 17  1  0  0  0  0
 10 31  1  0  0  0  0
 11 18  1  0  0  0  0
 13 20  2  0  0  0  0
 13 21  1  0  0  0  0
 14 22  2  0  0  0  0
 14 23  1  0  0  0  0
 15 19  2  0  0  0  0
 15 33  1  0  0  0  0
 17 34  1  0  0  0  0
 17 35  1  0  0  0  0
 17 36  1  0  0  0  0
 18 24  2  0  0  0  0
 18 37  1  0  0  0  0
 19 38  1  0  0  0  0
 20 25  1  0  0  0  0
 20 39  1  0  0  0  0
 21 26  2  0  0  0  0
 21 40  1  0  0  0  0
 22 27  1  0  0  0  0
 22 41  1  0  0  0  0
 23 28  2  0  0  0  0
 23 42  1  0  0  0  0
 24 43  1  0  0  0  0
 25 29  2  0  0  0  0
 25 44  1  0  0  0  0
 26 29  1  0  0  0  0
 26 45  1  0  0  0  0
 27 30  2  0  0  0  0
 27 46  1  0  0  0  0
 28 30  1  0  0  0  0
 28 47  1  0  0  0  0
 29 48  1  0  0  0  0
M  END
> <PUBCHEM_COMPOUND_CID>
49830403

> <PUBCHEM_CONFORMER_RMSD>
0.8

> <PUBCHEM_CONFORMER_DIVERSEORDER>
1
29
108
16
96
70
24
31
106
103
152
27
53
126
183
7
144
62
179
143
30
61
171
168
172
112
41
23
40
3
131
17
129
163
89
90
114
137
185
78
44
188
142
35
95
52
26
105
189
20
94
166
11
91
130
113
194
141
155
28
111
156
157
79
6
57
176
134
102
139
55
164
87
104
146
132
51
19
107
178
192
159
121
92
169
116
154
148
127
174
59
49
48
14
46
133
86
38
39
167
22
100
190
9
54
151
88
115
73
45
56
162
69
184
161
149
170
117
84
193
68
83
74
15
109
71
77
66
42
119
82
118
64
85
67
65
136
175
80
34
98
150
145
13
128
177
75
101
123
120
138
158
12
110
2
173
4
10
58
125
191
122
153
81
99
21
33
147
63
135
160
76
182
60
47
32
140
37
43
124
187
36
97
5
165
186
8
180
50
72
25
18
181
93

> <PUBCHEM_MMFF94_PARTIAL_CHARGES>
43
1 -0.19
10 0.51
11 0.36
12 0.25
13 -0.14
14 0.05
15 -0.18
16 0.72
18 -0.15
19 -0.07
2 -0.14
20 -0.15
21 -0.15
22 -0.15
23 -0.15
24 0.16
25 -0.15
26 -0.15
27 -0.15
28 -0.15
29 -0.15
3 0.33
30 0.19
32 0.4
33 0.15
37 0.15
38 0.15
39 0.15
4 -0.87
40 0.15
41 0.15
42 0.15
43 0.15
44 0.15
45 0.15
46 0.15
47 0.15
48 0.15
5 -0.57
6 -0.62
7 -0.62
8 -0.2
9 0.17

> <PUBCHEM_EFFECTIVE_ROTOR_COUNT>
5

> <PUBCHEM_PHARMACOPHORE_FEATURES>
9
1 4 donor
1 6 acceptor
3 3 5 12 cation
4 4 6 7 16 cation
5 2 3 12 15 19 rings
5 3 5 8 9 12 rings
6 13 20 21 25 26 29 rings
6 14 22 23 27 28 30 rings
6 6 7 11 16 18 24 rings

> <PUBCHEM_HEAVY_ATOM_COUNT>
30

> <PUBCHEM_ATOM_DEF_STEREO_COUNT>
0

> <PUBCHEM_ATOM_UDEF_STEREO_COUNT>
1

> <PUBCHEM_BOND_DEF_STEREO_COUNT>
0

> <PUBCHEM_BOND_UDEF_STEREO_COUNT>
0

> <PUBCHEM_ISOTOPIC_ATOM_COUNT>
0

> <PUBCHEM_COMPONENT_COUNT>
1

> <PUBCHEM_CACTVS_TAUTO_COUNT>
3

> <PUBCHEM_CONFORMER_ID>
02F85A0300000001

> <PUBCHEM_MMFF94_ENERGY>
109.4527

> <PUBCHEM_FEATURE_SELFOVERLAP>
46.049

> <PUBCHEM_SHAPE_FINGERPRINT>
10090160 65 18335985289724577594
10675989 125 17253696189270520925
11370993 70 18262234422110044524
11582403 64 17458620056724561328
12035758 1 18199459029577110538
12166972 35 18335704914998206860
12553582 1 17844513419473660425
12788726 201 18202287991797018528
13402501 40 18410856603244025819
13726171 33 18261394408270425665
13911987 19 18411989065349154576
14765038 42 18130525058491050563
14767858 380 18341891930597513356
14787075 74 18342737420574019831
14790565 3 18341621403603554329
14932702 115 17980780538137428932
15420108 30 16901305968284970010
15537594 2 18060138726438113735
15775530 1 17624685053054883386
17349148 13 18262801761730993394
173720 79 18114449133377973082
17909252 39 17202215006074109870
19319366 153 18339638924389082927
20587220 17 17694259619715766545
20642791 105 18336819901355934866
20764821 26 18122061180888637327
22393880 68 18119535331954330222
23558518 356 17840603495658429162
23559900 14 17977655412199558514
3493558 16 17025731539420900278
3737641 26 18200603484286158727
4258327 124 17751379472170139604
4409770 3 18337959012128934458
469060 322 18335999596682802881
484989 97 18340212985406775866
5171179 24 17555447688861768066
5486654 2 18413112774690424125
6669772 16 17986370386818252960
77296 10 16732701636352831570

> <PUBCHEM_SHAPE_MULTIPOLES>
579.34
11.84
4.17
1.56
4.63
2.85
-0.27
-4.14
3.76
-1.1
0.11
-0.6
-1.34
0.18

> <PUBCHEM_SHAPE_SELFOVERLAP>
1300.198

> <PUBCHEM_SHAPE_VOLUME>
307.2

> <PUBCHEM_COORDINATE_TYPE>
2
5
10

$$$$
