24905325
  -OEChem-10052115163D

 36 39  0     0  0  0  0  0  0999 V2000
   -5.5424    0.7601    0.3208 F   0  0  0  0  0  0  0  0  0  0  0  0
   -4.1777    0.9528   -2.0606 O   0  0  0  0  0  0  0  0  0  0  0  0
    2.0233    0.6012    0.3454 N   0  0  0  0  0  0  0  0  0  0  0  0
    0.7881    1.1311    0.4176 N   0  0  0  0  0  0  0  0  0  0  0  0
    3.1017   -1.5432    0.0270 N   0  0  0  0  0  0  0  0  0  0  0  0
    1.4743   -3.3381   -0.2563 N   0  0  0  0  0  0  0  0  0  0  0  0
   -0.8821   -2.9605   -0.2168 N   0  0  0  0  0  0  0  0  0  0  0  0
    3.2231    1.4090    0.4759 C   0  0  0  0  0  0  0  0  0  0  0  0
    3.9737    1.5756   -0.8618 C   0  0  0  0  0  0  0  0  0  0  0  0
    2.9289    2.9221    0.4114 C   0  0  0  0  0  0  0  0  0  0  0  0
    4.1897    3.0519   -0.4683 C   0  0  0  0  0  0  0  0  0  0  0  0
    2.0270   -0.7467    0.1408 C   0  0  0  0  0  0  0  0  0  0  0  0
    0.6980   -1.1266    0.0743 C   0  0  0  0  0  0  0  0  0  0  0  0
   -0.0145    0.0740    0.2518 C   0  0  0  0  0  0  0  0  0  0  0  0
   -1.4444    0.2516    0.2681 C   0  0  0  0  0  0  0  0  0  0  0  0
    0.4358   -2.4768   -0.1324 C   0  0  0  0  0  0  0  0  0  0  0  0
    2.7248   -2.8250   -0.1701 C   0  0  0  0  0  0  0  0  0  0  0  0
   -2.1274    0.5192   -0.9184 C   0  0  0  0  0  0  0  0  0  0  0  0
   -2.1457    0.1557    1.4700 C   0  0  0  0  0  0  0  0  0  0  0  0
   -3.5115    0.6906   -0.9029 C   0  0  0  0  0  0  0  0  0  0  0  0
   -3.5298    0.3272    1.4856 C   0  0  0  0  0  0  0  0  0  0  0  0
   -4.2128    0.5947    0.2990 C   0  0  0  0  0  0  0  0  0  0  0  0
    3.8587    1.1170    1.3206 H   0  0  0  0  0  0  0  0  0  0  0  0
    3.3626    1.4534   -1.7647 H   0  0  0  0  0  0  0  0  0  0  0  0
    4.8865    0.9836   -0.9708 H   0  0  0  0  0  0  0  0  0  0  0  0
    2.9726    3.4522    1.3671 H   0  0  0  0  0  0  0  0  0  0  0  0
    2.0267    3.2408   -0.1239 H   0  0  0  0  0  0  0  0  0  0  0  0
    5.1096    3.2269    0.1013 H   0  0  0  0  0  0  0  0  0  0  0  0
    4.1303    3.7761   -1.2844 H   0  0  0  0  0  0  0  0  0  0  0  0
    3.5325   -3.5417   -0.2736 H   0  0  0  0  0  0  0  0  0  0  0  0
   -1.5831    0.5943   -1.8577 H   0  0  0  0  0  0  0  0  0  0  0  0
   -1.6283   -0.0528    2.4035 H   0  0  0  0  0  0  0  0  0  0  0  0
   -1.6757   -2.3432   -0.1283 H   0  0  0  0  0  0  0  0  0  0  0  0
   -1.0282   -3.9497   -0.3680 H   0  0  0  0  0  0  0  0  0  0  0  0
   -4.0762    0.2527    2.4211 H   0  0  0  0  0  0  0  0  0  0  0  0
   -3.5382    0.9845   -2.7926 H   0  0  0  0  0  0  0  0  0  0  0  0
  1 22  1  0  0  0  0
  2 20  1  0  0  0  0
  2 36  1  0  0  0  0
  3  4  1  0  0  0  0
  3  8  1  0  0  0  0
  3 12  1  0  0  0  0
  4 14  2  0  0  0  0
  5 12  2  0  0  0  0
  5 17  1  0  0  0  0
  6 16  1  0  0  0  0
  6 17  2  0  0  0  0
  7 16  1  0  0  0  0
  7 33  1  0  0  0  0
  7 34  1  0  0  0  0
  8  9  1  0  0  0  0
  8 10  1  0  0  0  0
  8 23  1  0  0  0  0
  9 11  1  0  0  0  0
  9 24  1  0  0  0  0
  9 25  1  0  0  0  0
 10 11  1  0  0  0  0
 10 26  1  0  0  0  0
 10 27  1  0  0  0  0
 11 28  1  0  0  0  0
 11 29  1  0  0  0  0
 12 13  1  0  0  0  0
 13 14  1  0  0  0  0
 13 16  2  0  0  0  0
 14 15  1  0  0  0  0
 15 18  2  0  0  0  0
 15 19  1  0  0  0  0
 17 30  1  0  0  0  0
 18 20  1  0  0  0  0
 18 31  1  0  0  0  0
 19 21  2  0  0  0  0
 19 32  1  0  0  0  0
 20 22  2  0  0  0  0
 21 22  1  0  0  0  0
 21 35  1  0  0  0  0
M  END
> <PUBCHEM_COMPOUND_CID>
24905325

> <PUBCHEM_CONFORMER_RMSD>
0.6

> <PUBCHEM_CONFORMER_DIVERSEORDER>
1
8
4
6
7
5
3
2

> <PUBCHEM_MMFF94_PARTIAL_CHARGES>
25
1 -0.19
12 0.11
14 0.23
15 0.05
16 0.41
17 0.47
18 -0.15
19 -0.15
2 -0.53
20 0.08
21 -0.15
22 0.19
3 0.48
30 0.15
31 0.15
32 0.15
33 0.4
34 0.4
35 0.15
36 0.45
4 -0.71
5 -0.57
6 -0.62
7 -0.9
8 0.09

> <PUBCHEM_EFFECTIVE_ROTOR_COUNT>
2.8

> <PUBCHEM_PHARMACOPHORE_FEATURES>
10
1 2 donor
1 4 acceptor
1 7 cation
1 7 donor
3 3 5 12 cation
3 5 6 17 cation
4 8 9 10 11 rings
5 3 4 12 13 14 rings
6 15 18 19 20 21 22 rings
6 5 6 12 13 16 17 rings

> <PUBCHEM_HEAVY_ATOM_COUNT>
22

> <PUBCHEM_ATOM_DEF_STEREO_COUNT>
0

> <PUBCHEM_ATOM_UDEF_STEREO_COUNT>
0

> <PUBCHEM_BOND_DEF_STEREO_COUNT>
0

> <PUBCHEM_BOND_UDEF_STEREO_COUNT>
0

> <PUBCHEM_ISOTOPIC_ATOM_COUNT>
0

> <PUBCHEM_COMPONENT_COUNT>
1

> <PUBCHEM_CACTVS_TAUTO_COUNT>
15

> <PUBCHEM_CONFORMER_ID>
017C066D00000001

> <PUBCHEM_MMFF94_ENERGY>
58.695

> <PUBCHEM_FEATURE_SELFOVERLAP>
51.026

> <PUBCHEM_SHAPE_FINGERPRINT>
10165383 225 18337964505255040308
10411042 1 17834962966764874306
1100329 8 18411420605617597266
11582403 64 17099698865255406053
11725454 13 17315320774837502765
11796584 16 13758086177034582588
12173636 292 17979633764757683868
12236239 1 17417243235163672139
12390115 104 18052275169426535400
12403259 415 17894915084083455701
12553582 1 17980770337352691458
12730499 353 18337682991712677969
12788726 201 17477471471408853918
12895836 83 17753919386758585116
13009979 54 17344072862017229466
13134695 92 18047468929028440758
13140716 1 18411134779701599618
13583140 156 17458612402781428298
13911987 19 18265338485048728093
15342168 16 18337396036315902149
15502722 9 18410857633408013332
15842332 3 17703230607594656025
16945 1 18340208471164149474
17134986 127 18337392759667104140
17138139 8 17484487347736987391
1813 80 17628087689356038550
18186145 218 18343026618213385908
18785283 64 18334860506815050490
19784866 34 18270679891214283344
204376 136 18338238279106969321
20510252 161 17623011604989462802
20645477 70 18336546023522191115
21065201 7 16371015053234455059
21639500 275 18412260610223969539
21756936 100 17344657991155211960
2255824 54 18270965639641060366
22907989 373 17546444939372565564
23419403 2 17683852861864166210
23557571 272 17240492373027613261
23559900 14 18336543802871313362
23566358 2 18128828606217360846
23598291 2 17846217696513807053
238 59 18192126249298051975
2748010 2 18267035010410681882
283562 15 17691682703072032698
3060560 45 18410859876061703484
312423 11 17988090967585344833
335352 9 18411705400803870804
350125 39 18267311022178423146
3729539 64 18193869001752333022
458136 41 18411428323071856698
469060 322 17901392517467841307
474 4 18341896298537074720
495365 180 18410564076704402841
6025842 7 18412544293183155055
621550 34 18259706683912469925
633830 44 18059311914520425260
7364860 26 18411422765690104754
7471813 234 17986660477003181504
7615 1 17702942522510491073
77492 1 17489301937281978979
81228 2 17329146287664343960
8272917 22 18341900645218051277
84936 182 18202559583827589200
9999458 23 18334580109827970374

> <PUBCHEM_SHAPE_MULTIPOLES>
414.7
8.71
3.49
1.14
5.66
2.25
-0.15
-6.67
-1
-4.77
-0.42
1.27
-0.41
0.18

> <PUBCHEM_SHAPE_SELFOVERLAP>
926.902

> <PUBCHEM_SHAPE_VOLUME>
221.6

> <PUBCHEM_COORDINATE_TYPE>
2
5
10

$$$$
