23647573
  -OEChem-10062121563D

 54 58  0     1  0  0  0  0  0999 V2000
   -2.7678   -1.6464    1.1290 O   0  0  0  0  0  0  0  0  0  0  0  0
   -3.4584    2.1624   -1.9534 N   0  0  0  0  0  0  0  0  0  0  0  0
   -5.6405   -1.2057    2.1750 N   0  0  0  0  0  0  0  0  0  0  0  0
   -0.6118   -3.2277   -1.3479 N   0  0  0  0  0  0  0  0  0  0  0  0
    6.0805    1.8279    0.6834 N   0  0  0  0  0  0  0  0  0  0  0  0
   -4.3887    0.6942    1.2867 C   0  0  0  0  0  0  0  0  0  0  0  0
   -5.0158   -0.6749    0.9581 C   0  0  1  0  0  0  0  0  0  0  0  0
   -3.7685    1.3723    0.0977 C   0  0  0  0  0  0  0  0  0  0  0  0
   -2.5004    2.0168    0.0562 C   0  0  0  0  0  0  0  0  0  0  0  0
   -4.0130   -1.7100    0.4308 C   0  0  0  0  0  0  0  0  0  0  0  0
   -2.3304    2.5037   -1.2417 C   0  0  0  0  0  0  0  0  0  0  0  0
   -4.3331    1.4785   -1.1525 C   0  0  0  0  0  0  0  0  0  0  0  0
   -1.4780    2.2334    1.0010 C   0  0  0  0  0  0  0  0  0  0  0  0
   -1.1845    3.1991   -1.6433 C   0  0  0  0  0  0  0  0  0  0  0  0
   -0.3261    2.9276    0.6135 C   0  0  0  0  0  0  0  0  0  0  0  0
   -0.1836    3.4020   -0.6889 C   0  0  0  0  0  0  0  0  0  0  0  0
   -1.6481   -1.9613    0.4318 C   0  0  0  0  0  0  0  0  0  0  0  0
    0.7080   -1.7246    0.0104 C   0  0  0  0  0  0  0  0  0  0  0  0
    1.9812   -1.1200    0.3384 C   0  0  0  0  0  0  0  0  0  0  0  0
   -0.4230   -1.3822    0.7432 C   0  0  0  0  0  0  0  0  0  0  0  0
    3.5984    0.6705    0.0303 C   0  0  0  0  0  0  0  0  0  0  0  0
    2.3656    0.0723   -0.2777 C   0  0  0  0  0  0  0  0  0  0  0  0
    4.4456    0.0507    0.9720 C   0  0  0  0  0  0  0  0  0  0  0  0
    2.8207   -1.7290    1.2681 C   0  0  0  0  0  0  0  0  0  0  0  0
   -1.6890   -2.8703   -0.6132 C   0  0  0  0  0  0  0  0  0  0  0  0
    0.5617   -2.6441   -1.0160 C   0  0  0  0  0  0  0  0  0  0  0  0
    4.0485   -1.1486    1.5860 C   0  0  0  0  0  0  0  0  0  0  0  0
    4.0121    1.8653   -0.5701 C   0  0  0  0  0  0  0  0  0  0  0  0
    5.6628    0.6746    1.2525 C   0  0  0  0  0  0  0  0  0  0  0  0
    5.2436    2.3928   -0.2129 C   0  0  0  0  0  0  0  0  0  0  0  0
    1.6562   -3.0706   -1.8310 C   0  0  0  0  0  0  0  0  0  0  0  0
    2.5755   -3.4287   -2.5154 C   0  0  0  0  0  0  0  0  0  0  0  0
   -3.6480    0.5878    2.0890 H   0  0  0  0  0  0  0  0  0  0  0  0
   -5.1653    1.3657    1.6789 H   0  0  0  0  0  0  0  0  0  0  0  0
   -5.8161   -0.5586    0.2171 H   0  0  0  0  0  0  0  0  0  0  0  0
   -3.8695   -1.4902   -0.6360 H   0  0  0  0  0  0  0  0  0  0  0  0
   -4.4176   -2.7274    0.5056 H   0  0  0  0  0  0  0  0  0  0  0  0
   -5.2782    1.1337   -1.5484 H   0  0  0  0  0  0  0  0  0  0  0  0
   -3.6171    2.3853   -2.9263 H   0  0  0  0  0  0  0  0  0  0  0  0
   -1.5701    1.8709    2.0207 H   0  0  0  0  0  0  0  0  0  0  0  0
   -6.1237   -2.0775    1.9616 H   0  0  0  0  0  0  0  0  0  0  0  0
   -6.3541   -0.5569    2.5048 H   0  0  0  0  0  0  0  0  0  0  0  0
   -1.0722    3.5681   -2.6572 H   0  0  0  0  0  0  0  0  0  0  0  0
    0.4671    3.0955    1.3374 H   0  0  0  0  0  0  0  0  0  0  0  0
    0.7206    3.9365   -0.9687 H   0  0  0  0  0  0  0  0  0  0  0  0
   -0.3611   -0.6694    1.5623 H   0  0  0  0  0  0  0  0  0  0  0  0
    1.7055    0.5435   -1.0050 H   0  0  0  0  0  0  0  0  0  0  0  0
    2.5346   -2.6580    1.7560 H   0  0  0  0  0  0  0  0  0  0  0  0
   -2.5961   -3.3889   -0.9050 H   0  0  0  0  0  0  0  0  0  0  0  0
    4.6919   -1.6373    2.3141 H   0  0  0  0  0  0  0  0  0  0  0  0
    3.3929    2.3783   -1.2997 H   0  0  0  0  0  0  0  0  0  0  0  0
    6.3618    0.2501    1.9680 H   0  0  0  0  0  0  0  0  0  0  0  0
    5.5990    3.3174   -0.6562 H   0  0  0  0  0  0  0  0  0  0  0  0
    3.3915   -3.7457   -3.1219 H   0  0  0  0  0  0  0  0  0  0  0  0
  1 10  1  0  0  0  0
  1 17  1  0  0  0  0
  2 11  1  0  0  0  0
  2 12  1  0  0  0  0
  2 39  1  0  0  0  0
  3  7  1  0  0  0  0
  3 41  1  0  0  0  0
  3 42  1  0  0  0  0
  4 25  2  0  0  0  0
  4 26  1  0  0  0  0
  5 29  2  0  0  0  0
  5 30  1  0  0  0  0
  6  7  1  0  0  0  0
  6  8  1  0  0  0  0
  6 33  1  0  0  0  0
  6 34  1  0  0  0  0
  7 10  1  0  0  0  0
  7 35  1  0  0  0  0
  8  9  1  0  0  0  0
  8 12  2  0  0  0  0
  9 11  1  0  0  0  0
  9 13  2  0  0  0  0
 10 36  1  0  0  0  0
 10 37  1  0  0  0  0
 11 14  2  0  0  0  0
 12 38  1  0  0  0  0
 13 15  1  0  0  0  0
 13 40  1  0  0  0  0
 14 16  1  0  0  0  0
 14 43  1  0  0  0  0
 15 16  2  0  0  0  0
 15 44  1  0  0  0  0
 16 45  1  0  0  0  0
 17 20  2  0  0  0  0
 17 25  1  0  0  0  0
 18 19  1  0  0  0  0
 18 20  1  0  0  0  0
 18 26  2  0  0  0  0
 19 22  2  0  0  0  0
 19 24  1  0  0  0  0
 20 46  1  0  0  0  0
 21 22  1  0  0  0  0
 21 23  2  0  0  0  0
 21 28  1  0  0  0  0
 22 47  1  0  0  0  0
 23 27  1  0  0  0  0
 23 29  1  0  0  0  0
 24 27  2  0  0  0  0
 24 48  1  0  0  0  0
 25 49  1  0  0  0  0
 26 31  1  0  0  0  0
 27 50  1  0  0  0  0
 28 30  2  0  0  0  0
 28 51  1  0  0  0  0
 29 52  1  0  0  0  0
 30 53  1  0  0  0  0
 31 32  3  0  0  0  0
 32 54  1  0  0  0  0
M  END
> <PUBCHEM_COMPOUND_CID>
23647573

> <PUBCHEM_CONFORMER_RMSD>
1.4

> <PUBCHEM_CONFORMER_DIVERSEORDER>
1
15
96
21
27
83
54
30
65
19
89
95
42
43
41
32
34
72
10
71
36
100
105
60
56
14
101
74
92
47
57
103
93
99
22
29
24
58
44
90
26
82
79
31
64
73
28
18
59
84
46
102
5
75
8
20
66
98
67
40
17
37
94
6
87
16
97
13
23
52
39
51
85
91
7
25
69
49
9
68
33
81
61
45
86
12
4
48
80
78
63
50
11
3
62
70
88
104
77
76
53
55
38
2
35

> <PUBCHEM_MMFF94_PARTIAL_CHARGES>
44
1 -0.36
10 0.28
11 -0.15
12 -0.3
13 -0.15
14 -0.15
15 -0.15
16 -0.15
17 0.08
2 0.03
20 -0.15
22 -0.15
24 -0.15
25 0.16
26 0.38
27 -0.15
28 -0.15
29 0.16
3 -0.99
30 0.16
31 -0.07
32 -0.18
38 0.15
39 0.27
4 -0.62
40 0.15
41 0.36
42 0.36
43 0.15
44 0.15
45 0.15
46 0.15
47 0.15
48 0.15
49 0.15
5 -0.62
50 0.15
51 0.15
52 0.15
53 0.15
54 0.18
6 0.18
7 0.27
8 -0.18

> <PUBCHEM_EFFECTIVE_ROTOR_COUNT>
6

> <PUBCHEM_PHARMACOPHORE_FEATURES>
13
1 1 acceptor
1 2 cation
1 2 donor
1 3 cation
1 3 donor
1 32 hydrophobe
1 4 acceptor
1 5 acceptor
5 2 8 9 11 12 rings
6 19 21 22 23 24 27 rings
6 4 17 18 20 25 26 rings
6 5 21 23 28 29 30 rings
6 9 11 13 14 15 16 rings

> <PUBCHEM_HEAVY_ATOM_COUNT>
32

> <PUBCHEM_ATOM_DEF_STEREO_COUNT>
1

> <PUBCHEM_ATOM_UDEF_STEREO_COUNT>
0

> <PUBCHEM_BOND_DEF_STEREO_COUNT>
0

> <PUBCHEM_BOND_UDEF_STEREO_COUNT>
0

> <PUBCHEM_ISOTOPIC_ATOM_COUNT>
0

> <PUBCHEM_COMPONENT_COUNT>
1

> <PUBCHEM_CACTVS_TAUTO_COUNT>
1

> <PUBCHEM_CONFORMER_ID>
0168D55500000001

> <PUBCHEM_MMFF94_ENERGY>
83.4974

> <PUBCHEM_FEATURE_SELFOVERLAP>
66.09

> <PUBCHEM_SHAPE_FINGERPRINT>
10369192 42 17916874641602577006
10675989 125 16963486679240938613
10871710 139 18119250816547026844
11513181 2 17988653951977691327
12128747 34 17823980035541299594
12422481 6 18334873709681818521
13402501 40 18408602557009288505
14068700 675 17485912336529399503
14840074 17 18265062494744617705
14950920 106 17385707098379814634
15297060 5 18060147574028714600
15961568 22 18335708272797027469
17492 54 18192121920340380237
19309040 13 17632024022593175121
19315092 285 16154525688664643555
20715895 44 17754441366670887653
20764821 26 18343587308876769238
22182313 1 18268437845181617479
23559900 14 18052544274443564726
24771293 8 18412271632318203609
25019877 29 17416698027694466335
469060 322 17386558201994692924
474144 1 17460614733699154708
5081480 168 17557722265124524750
508706 21 17904203628859045325
6036956 94 18187362147131125661
6287921 2 17985271763667997053

> <PUBCHEM_SHAPE_MULTIPOLES>
632.75
11.47
4.88
1.85
4.31
0.26
0.49
-4.13
-4.7
0
2.68
-0.35
0.79
2.23

> <PUBCHEM_SHAPE_SELFOVERLAP>
1411.988

> <PUBCHEM_SHAPE_VOLUME>
334.8

> <PUBCHEM_COORDINATE_TYPE>
2
5
10

$$$$
