49830321
  -OEChem-10052120433D

 37 39  0     0  0  0  0  0  0999 V2000
   -3.2689   -0.9965    0.0656 N   0  0  0  0  0  0  0  0  0  0  0  0
    2.3568    2.1809   -0.7544 N   0  0  0  0  0  0  0  0  0  0  0  0
    0.6929   -2.0238   -0.3661 N   0  0  0  0  0  0  0  0  0  0  0  0
    4.5896    1.7216    0.0250 N   0  0  0  0  0  0  0  0  0  0  0  0
   -1.6224   -2.6634   -0.1710 N   0  0  0  0  0  0  0  0  0  0  0  0
   -5.2471    0.4259    0.2601 C   0  0  0  0  0  0  0  0  0  0  0  0
   -3.7244    0.3685    0.1730 C   0  0  0  0  0  0  0  0  0  0  0  0
    1.3589    0.2384   -0.3277 C   0  0  0  0  0  0  0  0  0  0  0  0
   -5.7807    1.8590    0.3287 C   0  0  0  0  0  0  0  0  0  0  0  0
    2.7156    0.1407    0.0803 C   0  0  0  0  0  0  0  0  0  0  0  0
    0.3064   -0.7348   -0.2696 C   0  0  0  0  0  0  0  0  0  0  0  0
    3.3098    1.3680   -0.1992 C   0  0  0  0  0  0  0  0  0  0  0  0
   -1.9378   -1.3547   -0.0806 C   0  0  0  0  0  0  0  0  0  0  0  0
    1.1672    1.5048   -0.8368 C   0  0  0  0  0  0  0  0  0  0  0  0
   -1.0069   -0.3369   -0.1241 C   0  0  0  0  0  0  0  0  0  0  0  0
   -7.3012    1.8850    0.3482 C   0  0  0  0  0  0  0  0  0  0  0  0
    3.5232   -0.8510    0.6604 C   0  0  0  0  0  0  0  0  0  0  0  0
    4.8572   -0.5378    0.9142 C   0  0  0  0  0  0  0  0  0  0  0  0
    5.3203    0.7289    0.5841 C   0  0  0  0  0  0  0  0  0  0  0  0
   -0.3083   -2.9228   -0.3101 C   0  0  0  0  0  0  0  0  0  0  0  0
   -5.5852   -0.1338    1.1416 H   0  0  0  0  0  0  0  0  0  0  0  0
   -5.6785   -0.0810   -0.6130 H   0  0  0  0  0  0  0  0  0  0  0  0
   -3.3029    0.8417    1.0682 H   0  0  0  0  0  0  0  0  0  0  0  0
   -3.4106    0.9438   -0.7067 H   0  0  0  0  0  0  0  0  0  0  0  0
   -5.4238    2.4305   -0.5359 H   0  0  0  0  0  0  0  0  0  0  0  0
   -5.3968    2.3549    1.2276 H   0  0  0  0  0  0  0  0  0  0  0  0
   -3.9437   -1.7521    0.0998 H   0  0  0  0  0  0  0  0  0  0  0  0
    0.3039    1.9979   -1.2633 H   0  0  0  0  0  0  0  0  0  0  0  0
   -1.2658    0.7095   -0.0308 H   0  0  0  0  0  0  0  0  0  0  0  0
    2.5092    3.1325   -1.0584 H   0  0  0  0  0  0  0  0  0  0  0  0
   -7.7134    1.4262   -0.5562 H   0  0  0  0  0  0  0  0  0  0  0  0
   -7.6914    1.3446    1.2166 H   0  0  0  0  0  0  0  0  0  0  0  0
   -7.6618    2.9170    0.4001 H   0  0  0  0  0  0  0  0  0  0  0  0
    3.1360   -1.8326    0.9128 H   0  0  0  0  0  0  0  0  0  0  0  0
    5.5203   -1.2703    1.3620 H   0  0  0  0  0  0  0  0  0  0  0  0
    6.3578    0.9902    0.7753 H   0  0  0  0  0  0  0  0  0  0  0  0
   -0.0263   -3.9659   -0.3849 H   0  0  0  0  0  0  0  0  0  0  0  0
  1  7  1  0  0  0  0
  1 13  1  0  0  0  0
  1 27  1  0  0  0  0
  2 12  1  0  0  0  0
  2 14  1  0  0  0  0
  2 30  1  0  0  0  0
  3 11  1  0  0  0  0
  3 20  2  0  0  0  0
  4 12  1  0  0  0  0
  4 19  2  0  0  0  0
  5 13  2  0  0  0  0
  5 20  1  0  0  0  0
  6  7  1  0  0  0  0
  6  9  1  0  0  0  0
  6 21  1  0  0  0  0
  6 22  1  0  0  0  0
  7 23  1  0  0  0  0
  7 24  1  0  0  0  0
  8 10  1  0  0  0  0
  8 11  1  0  0  0  0
  8 14  2  0  0  0  0
  9 16  1  0  0  0  0
  9 25  1  0  0  0  0
  9 26  1  0  0  0  0
 10 12  2  0  0  0  0
 10 17  1  0  0  0  0
 11 15  2  0  0  0  0
 13 15  1  0  0  0  0
 14 28  1  0  0  0  0
 15 29  1  0  0  0  0
 16 31  1  0  0  0  0
 16 32  1  0  0  0  0
 16 33  1  0  0  0  0
 17 18  2  0  0  0  0
 17 34  1  0  0  0  0
 18 19  1  0  0  0  0
 18 35  1  0  0  0  0
 19 36  1  0  0  0  0
 20 37  1  0  0  0  0
M  END
> <PUBCHEM_COMPOUND_CID>
49830321

> <PUBCHEM_CONFORMER_RMSD>
0.8

> <PUBCHEM_CONFORMER_DIVERSEORDER>
1
51
37
6
40
9
13
32
36
42
49
2
30
46
23
29
39
3
25
20
44
12
8
38
11
50
31
16
48
18
21
41
43
47
22
33
5
34
10
28
4
52
19
26
7
14
17
27
35
53
24
15
45

> <PUBCHEM_MMFF94_PARTIAL_CHARGES>
24
1 -0.87
11 0.36
12 0.11
13 0.41
14 -0.3
15 -0.15
17 -0.15
18 -0.15
19 0.16
2 0.03
20 0.47
27 0.4
28 0.15
29 0.15
3 -0.62
30 0.27
34 0.15
35 0.15
36 0.15
37 0.15
4 -0.57
5 -0.62
7 0.37
8 -0.05

> <PUBCHEM_EFFECTIVE_ROTOR_COUNT>
5

> <PUBCHEM_PHARMACOPHORE_FEATURES>
10
1 1 donor
1 16 hydrophobe
1 2 cation
1 2 donor
1 4 acceptor
3 1 5 13 cation
3 3 5 20 cation
5 2 8 10 12 14 rings
6 3 5 11 13 15 20 rings
6 4 10 12 17 18 19 rings

> <PUBCHEM_HEAVY_ATOM_COUNT>
20

> <PUBCHEM_ATOM_DEF_STEREO_COUNT>
0

> <PUBCHEM_ATOM_UDEF_STEREO_COUNT>
0

> <PUBCHEM_BOND_DEF_STEREO_COUNT>
0

> <PUBCHEM_BOND_UDEF_STEREO_COUNT>
0

> <PUBCHEM_ISOTOPIC_ATOM_COUNT>
0

> <PUBCHEM_COMPONENT_COUNT>
1

> <PUBCHEM_CACTVS_TAUTO_COUNT>
16

> <PUBCHEM_CONFORMER_ID>
02F859B100000001

> <PUBCHEM_MMFF94_ENERGY>
44.6897

> <PUBCHEM_FEATURE_SELFOVERLAP>
51

> <PUBCHEM_SHAPE_FINGERPRINT>
10906281 52 17823140206726846232
11578080 2 17986096638319071856
11646440 116 17846789516054782257
12107183 9 18336257947339307730
12403259 118 18189057645800008393
12403260 363 18266454502704619479
13464513 79 11025805296875382465
13740256 8 8934994876612905985
13785724 45 17905324027156498874
14251764 30 13623524628259498280
14466204 15 18412262805348533625
15238133 3 17968106321289687308
15442244 35 18263357156974233814
15475509 35 16298945316923555738
17810953 82 18410296878404608309
18222031 100 11674882251321975587
19784866 9 18411418388949768291
20157964 124 18339644422342288741
20621476 66 18412266159337936476
20715895 44 18412546475142884873
21033648 29 18201426030241110784
21298829 104 18199472074379933153
21403212 168 18261383408874257667
21421861 104 17895177880442471578
21452121 103 18337392617864474987
21774942 28 16844454817295585057
23402539 116 18201994456415003469
23559900 14 17916880113997489508
2767999 5 18130786742279897737
2838139 119 18411693271658477853
33382 64 14562800011815593704
335352 9 18411139113239094806
445580 126 18270681966379598945
474 4 18411141290977307227
5104073 3 18115578396133491016
5385378 56 18339928087230354019
59682541 52 16343151212088380109
59755656 215 18271252603564610390
6328613 192 18336834199197016460
7970288 3 8358259224780925249

> <PUBCHEM_SHAPE_MULTIPOLES>
386.69
13.88
2.68
0.78
18.68
1.19
0.02
-10.63
4.04
0.92
-0.4
-0.38
-0.09
-0.82

> <PUBCHEM_SHAPE_SELFOVERLAP>
837.835

> <PUBCHEM_SHAPE_VOLUME>
206.4

> <PUBCHEM_COORDINATE_TYPE>
2
5
10

$$$$
