24755603
  -OEChem-10052115183D

 40 42  0     0  0  0  0  0  0999 V2000
    5.2699   -0.7342    1.2255 O   0  0  0  0  0  0  0  0  0  0  0  0
   -1.6732   -1.3198    0.0325 N   0  0  0  0  0  0  0  0  0  0  0  0
   -4.3569    0.9469   -0.1707 N   0  0  0  0  0  0  0  0  0  0  0  0
   -4.0238   -1.9074    0.0656 N   0  0  0  0  0  0  0  0  0  0  0  0
   -0.9500   -0.1558   -0.0581 C   0  0  0  0  0  0  0  0  0  0  0  0
    4.7755   -0.1902   -0.0201 C   0  0  0  0  0  0  0  0  0  0  0  0
   -1.8352    0.8987   -0.1503 C   0  0  0  0  0  0  0  0  0  0  0  0
    0.4947   -0.1646   -0.0485 C   0  0  0  0  0  0  0  0  0  0  0  0
    3.2842   -0.1813   -0.0300 C   0  0  0  0  0  0  0  0  0  0  0  0
   -3.1386    0.3516   -0.1140 C   0  0  0  0  0  0  0  0  0  0  0  0
   -1.4933    2.3314   -0.2651 C   0  0  0  0  0  0  0  0  0  0  0  0
   -3.0089   -1.0263   -0.0001 C   0  0  0  0  0  0  0  0  0  0  0  0
    1.1817   -0.6850    1.0482 C   0  0  0  0  0  0  0  0  0  0  0  0
    1.2023    0.3474   -1.1361 C   0  0  0  0  0  0  0  0  0  0  0  0
    2.5765   -0.6935    1.0574 C   0  0  0  0  0  0  0  0  0  0  0  0
    2.5971    0.3390   -1.1267 C   0  0  0  0  0  0  0  0  0  0  0  0
    5.3258   -1.0923   -1.1479 C   0  0  0  0  0  0  0  0  0  0  0  0
    5.4372    1.2073   -0.1310 C   0  0  0  0  0  0  0  0  0  0  0  0
   -1.0551    2.9467    1.0676 C   0  0  0  0  0  0  0  0  0  0  0  0
   -5.3853    0.0757   -0.1058 C   0  0  0  0  0  0  0  0  0  0  0  0
   -5.2246   -1.2943    0.0074 C   0  0  0  0  0  0  0  0  0  0  0  0
   -0.7049    2.4853   -1.0094 H   0  0  0  0  0  0  0  0  0  0  0  0
   -2.3608    2.8928   -0.6340 H   0  0  0  0  0  0  0  0  0  0  0  0
   -1.2844   -2.2499    0.1099 H   0  0  0  0  0  0  0  0  0  0  0  0
    0.6468   -1.0852    1.9065 H   0  0  0  0  0  0  0  0  0  0  0  0
    0.6865    0.7468   -2.0058 H   0  0  0  0  0  0  0  0  0  0  0  0
    3.0712   -1.1084    1.9303 H   0  0  0  0  0  0  0  0  0  0  0  0
    3.1281    0.7419   -1.9846 H   0  0  0  0  0  0  0  0  0  0  0  0
    6.4175   -1.1733   -1.0875 H   0  0  0  0  0  0  0  0  0  0  0  0
    5.0677   -0.7180   -2.1440 H   0  0  0  0  0  0  0  0  0  0  0  0
    4.9346   -2.1125   -1.0532 H   0  0  0  0  0  0  0  0  0  0  0  0
    6.5282    1.1366   -0.0525 H   0  0  0  0  0  0  0  0  0  0  0  0
    5.1914    1.7027   -1.0758 H   0  0  0  0  0  0  0  0  0  0  0  0
    5.1029    1.8536    0.6892 H   0  0  0  0  0  0  0  0  0  0  0  0
   -1.8396    2.8420    1.8248 H   0  0  0  0  0  0  0  0  0  0  0  0
   -0.8447    4.0131    0.9385 H   0  0  0  0  0  0  0  0  0  0  0  0
   -0.1493    2.4665    1.4513 H   0  0  0  0  0  0  0  0  0  0  0  0
    6.2396   -0.7838    1.1720 H   0  0  0  0  0  0  0  0  0  0  0  0
   -6.3739    0.5195   -0.1486 H   0  0  0  0  0  0  0  0  0  0  0  0
   -6.0848   -1.9533    0.0559 H   0  0  0  0  0  0  0  0  0  0  0  0
  1  6  1  0  0  0  0
  1 38  1  0  0  0  0
  2  5  1  0  0  0  0
  2 12  1  0  0  0  0
  2 24  1  0  0  0  0
  3 10  2  0  0  0  0
  3 20  1  0  0  0  0
  4 12  2  0  0  0  0
  4 21  1  0  0  0  0
  5  7  2  0  0  0  0
  5  8  1  0  0  0  0
  6  9  1  0  0  0  0
  6 17  1  0  0  0  0
  6 18  1  0  0  0  0
  7 10  1  0  0  0  0
  7 11  1  0  0  0  0
  8 13  2  0  0  0  0
  8 14  1  0  0  0  0
  9 15  2  0  0  0  0
  9 16  1  0  0  0  0
 10 12  1  0  0  0  0
 11 19  1  0  0  0  0
 11 22  1  0  0  0  0
 11 23  1  0  0  0  0
 13 15  1  0  0  0  0
 13 25  1  0  0  0  0
 14 16  2  0  0  0  0
 14 26  1  0  0  0  0
 15 27  1  0  0  0  0
 16 28  1  0  0  0  0
 17 29  1  0  0  0  0
 17 30  1  0  0  0  0
 17 31  1  0  0  0  0
 18 32  1  0  0  0  0
 18 33  1  0  0  0  0
 18 34  1  0  0  0  0
 19 35  1  0  0  0  0
 19 36  1  0  0  0  0
 19 37  1  0  0  0  0
 20 21  2  0  0  0  0
 20 39  1  0  0  0  0
 21 40  1  0  0  0  0
M  END
> <PUBCHEM_COMPOUND_CID>
24755603

> <PUBCHEM_CONFORMER_RMSD>
0.6

> <PUBCHEM_CONFORMER_DIVERSEORDER>
1
10
3
14
7
5
12
2
9
4
13
8
6
11

> <PUBCHEM_MMFF94_PARTIAL_CHARGES>
26
1 -0.68
10 0.26
11 0.18
12 0.11
13 -0.15
14 -0.15
15 -0.15
16 -0.15
2 0.03
20 0.16
21 0.16
24 0.27
25 0.15
26 0.15
27 0.15
28 0.15
3 -0.57
38 0.4
39 0.15
4 -0.57
40 0.15
5 -0.2
6 0.42
7 -0.18
8 0.05
9 -0.14

> <PUBCHEM_EFFECTIVE_ROTOR_COUNT>
3

> <PUBCHEM_PHARMACOPHORE_FEATURES>
10
1 1 acceptor
1 1 donor
1 19 hydrophobe
1 2 donor
1 3 acceptor
3 2 4 12 cation
3 6 17 18 hydrophobe
5 2 5 7 10 12 rings
6 3 4 10 12 20 21 rings
6 8 9 13 14 15 16 rings

> <PUBCHEM_HEAVY_ATOM_COUNT>
21

> <PUBCHEM_ATOM_DEF_STEREO_COUNT>
0

> <PUBCHEM_ATOM_UDEF_STEREO_COUNT>
0

> <PUBCHEM_BOND_DEF_STEREO_COUNT>
0

> <PUBCHEM_BOND_UDEF_STEREO_COUNT>
0

> <PUBCHEM_ISOTOPIC_ATOM_COUNT>
0

> <PUBCHEM_COMPONENT_COUNT>
1

> <PUBCHEM_CACTVS_TAUTO_COUNT>
3

> <PUBCHEM_CONFORMER_ID>
0179BD9300000001

> <PUBCHEM_MMFF94_ENERGY>
53.5206

> <PUBCHEM_FEATURE_SELFOVERLAP>
50.878

> <PUBCHEM_SHAPE_FINGERPRINT>
11045515 52 17531242855399928029
11315181 36 18261115171065887276
12107183 9 17541651721621007696
12166972 35 17894352189706387164
12236239 1 17967531268165911279
12516196 113 18272369806436835369
12788726 201 18335980861887440201
12916748 109 18411702076198451048
13288520 33 18411420609458409623
13533116 47 17894906296638436394
13760787 5 16081372934460315694
14341114 176 18411985754361723612
14386348 63 17632580448169052695
14787075 74 18261671575156807912
17349148 13 17603308141839709752
17834072 33 18113899360062566054
17844677 252 18342465820281133976
17862501 102 18114178623188979128
1813 80 14692580926903217624
18222031 100 18130494332210618383
18681886 176 18334294309976986762
200 152 17967532384978695091
20510252 161 18342176605414724977
20600515 1 18200328692215322461
20645477 70 14996276982208567730
21033648 29 17059760135883764104
21267235 1 18261683644431816171
2297311 6 18343311348606177252
23175994 123 17060621105170344969
23352939 185 17988931105990806032
23402539 116 18412541016049287895
23557571 272 18131076987073411396
23559900 14 18410570725403499576
26918003 58 17240485818785940307
300161 21 17894341181631048679
3004659 81 18260270758909764350
335352 9 18410571808837343989
34797466 226 18202010962348926996
474 4 17386576893998385172
5104073 3 18335704974257103768
542803 24 18131915961621083122
59755656 215 18340491071195770078
67856867 119 18115592698164083620
7495541 125 17989201581851157104

> <PUBCHEM_SHAPE_MULTIPOLES>
411.36
12.58
1.94
1.02
4.15
1.35
0.05
-3.4
-0.68
-1.49
0.35
1
0.02
-0.12

> <PUBCHEM_SHAPE_SELFOVERLAP>
899.476

> <PUBCHEM_SHAPE_VOLUME>
223

> <PUBCHEM_COORDINATE_TYPE>
2
5
10

$$$$
