10247543
  -OEChem-10062121563D

 42 45  0     0  0  0  0  0  0999 V2000
    1.6990   -0.6859   -2.1930 F   0  0  0  0  0  0  0  0  0  0  0  0
    3.8410   -3.7540    0.6980 F   0  0  0  0  0  0  0  0  0  0  0  0
    0.9237    3.2677   -0.5237 O   0  0  0  0  0  0  0  0  0  0  0  0
   -2.2054    0.1579    0.5493 N   0  0  0  0  0  0  0  0  0  0  0  0
   -4.0568   -0.9128    1.0433 N   0  0  0  0  0  0  0  0  0  0  0  0
   -3.5002   -0.4575    2.2217 N   0  0  0  0  0  0  0  0  0  0  0  0
    2.9198    2.3555   -1.0700 N   0  0  0  0  0  0  0  0  0  0  0  0
   -3.4781   -0.8085   -1.3785 C   0  0  0  0  0  0  0  0  0  0  0  0
   -3.2727   -0.5382    0.0572 C   0  0  0  0  0  0  0  0  0  0  0  0
   -3.6071    0.4550   -2.3045 C   0  0  0  0  0  0  0  0  0  0  0  0
   -2.2960   -1.6339   -1.9902 C   0  0  0  0  0  0  0  0  0  0  0  0
   -4.7879   -1.6279   -1.6346 C   0  0  0  0  0  0  0  0  0  0  0  0
   -2.3910    0.1830    1.9199 C   0  0  0  0  0  0  0  0  0  0  0  0
   -1.1267    0.7434   -0.1030 C   0  0  0  0  0  0  0  0  0  0  0  0
   -0.1815    1.3899    0.6170 C   0  0  0  0  0  0  0  0  0  0  0  0
   -1.4092    0.8528    2.6953 C   0  0  0  0  0  0  0  0  0  0  0  0
   -0.3576    1.4262    2.0788 C   0  0  0  0  0  0  0  0  0  0  0  0
    0.9328    1.9785   -0.0730 C   0  0  0  0  0  0  0  0  0  0  0  0
    2.1509    1.4315   -0.4100 C   0  0  0  0  0  0  0  0  0  0  0  0
    2.5843    0.0966   -0.1286 C   0  0  0  0  0  0  0  0  0  0  0  0
    2.1447    3.4157   -1.1069 C   0  0  0  0  0  0  0  0  0  0  0  0
    2.3409   -0.9329   -1.0417 C   0  0  0  0  0  0  0  0  0  0  0  0
    3.2549   -0.1822    1.0652 C   0  0  0  0  0  0  0  0  0  0  0  0
    2.7650   -2.2322   -0.7627 C   0  0  0  0  0  0  0  0  0  0  0  0
    3.6790   -1.4814    1.3441 C   0  0  0  0  0  0  0  0  0  0  0  0
    3.4341   -2.5064    0.4302 C   0  0  0  0  0  0  0  0  0  0  0  0
   -3.8341    0.1676   -3.3379 H   0  0  0  0  0  0  0  0  0  0  0  0
   -4.4217    1.0975   -1.9496 H   0  0  0  0  0  0  0  0  0  0  0  0
   -2.7059    1.0690   -2.3352 H   0  0  0  0  0  0  0  0  0  0  0  0
   -2.1070   -2.5311   -1.3883 H   0  0  0  0  0  0  0  0  0  0  0  0
   -2.5422   -1.9697   -3.0050 H   0  0  0  0  0  0  0  0  0  0  0  0
   -1.3547   -1.0894   -2.0671 H   0  0  0  0  0  0  0  0  0  0  0  0
   -4.9286   -1.8464   -2.6992 H   0  0  0  0  0  0  0  0  0  0  0  0
   -4.7592   -2.5845   -1.0996 H   0  0  0  0  0  0  0  0  0  0  0  0
   -5.6683   -1.0767   -1.2840 H   0  0  0  0  0  0  0  0  0  0  0  0
   -1.0522    0.6888   -1.1770 H   0  0  0  0  0  0  0  0  0  0  0  0
   -1.5146    0.8945    3.7735 H   0  0  0  0  0  0  0  0  0  0  0  0
    0.4004    1.9394    2.6632 H   0  0  0  0  0  0  0  0  0  0  0  0
    2.3576    4.3813   -1.5401 H   0  0  0  0  0  0  0  0  0  0  0  0
    3.4540    0.6048    1.7891 H   0  0  0  0  0  0  0  0  0  0  0  0
    2.5741   -3.0302   -1.4739 H   0  0  0  0  0  0  0  0  0  0  0  0
    4.1996   -1.6954    2.2727 H   0  0  0  0  0  0  0  0  0  0  0  0
  1 22  1  0  0  0  0
  2 26  1  0  0  0  0
  3 18  1  0  0  0  0
  3 21  1  0  0  0  0
  4  9  1  0  0  0  0
  4 13  1  0  0  0  0
  4 14  1  0  0  0  0
  5  6  1  0  0  0  0
  5  9  2  0  0  0  0
  6 13  2  0  0  0  0
  7 19  1  0  0  0  0
  7 21  2  0  0  0  0
  8  9  1  0  0  0  0
  8 10  1  0  0  0  0
  8 11  1  0  0  0  0
  8 12  1  0  0  0  0
 10 27  1  0  0  0  0
 10 28  1  0  0  0  0
 10 29  1  0  0  0  0
 11 30  1  0  0  0  0
 11 31  1  0  0  0  0
 11 32  1  0  0  0  0
 12 33  1  0  0  0  0
 12 34  1  0  0  0  0
 12 35  1  0  0  0  0
 13 16  1  0  0  0  0
 14 15  2  0  0  0  0
 14 36  1  0  0  0  0
 15 17  1  0  0  0  0
 15 18  1  0  0  0  0
 16 17  2  0  0  0  0
 16 37  1  0  0  0  0
 17 38  1  0  0  0  0
 18 19  2  0  0  0  0
 19 20  1  0  0  0  0
 20 22  2  0  0  0  0
 20 23  1  0  0  0  0
 21 39  1  0  0  0  0
 22 24  1  0  0  0  0
 23 25  2  0  0  0  0
 23 40  1  0  0  0  0
 24 26  2  0  0  0  0
 24 41  1  0  0  0  0
 25 26  1  0  0  0  0
 25 42  1  0  0  0  0
M  END
> <PUBCHEM_COMPOUND_CID>
10247543

> <PUBCHEM_CONFORMER_RMSD>
0.6

> <PUBCHEM_CONFORMER_DIVERSEORDER>
1
25
15
17
13
20
27
22
11
5
14
19
18
16
7
12
21
6
10
8
9
26
2
28
3
4
24
23

> <PUBCHEM_MMFF94_PARTIAL_CHARGES>
30
1 -0.19
13 0.14
14 -0.18
15 0.05
16 -0.11
17 -0.15
18 0.09
19 0.17
2 -0.19
20 0.05
21 0.33
22 0.19
23 -0.15
24 -0.15
25 -0.15
26 0.19
3 -0.28
36 0.15
37 0.15
38 0.15
39 0.15
4 0.33
40 0.15
41 0.15
42 0.15
5 -0.34
6 -0.34
7 -0.57
8 0.18
9 0.01

> <PUBCHEM_EFFECTIVE_ROTOR_COUNT>
3

> <PUBCHEM_PHARMACOPHORE_FEATURES>
7
3 4 5 9 cation
3 4 6 13 cation
4 8 10 11 12 hydrophobe
5 3 7 18 19 21 rings
5 4 5 6 9 13 rings
6 20 22 23 24 25 26 rings
6 4 13 14 15 16 17 rings

> <PUBCHEM_HEAVY_ATOM_COUNT>
26

> <PUBCHEM_ATOM_DEF_STEREO_COUNT>
0

> <PUBCHEM_ATOM_UDEF_STEREO_COUNT>
0

> <PUBCHEM_BOND_DEF_STEREO_COUNT>
0

> <PUBCHEM_BOND_UDEF_STEREO_COUNT>
0

> <PUBCHEM_ISOTOPIC_ATOM_COUNT>
0

> <PUBCHEM_COMPONENT_COUNT>
1

> <PUBCHEM_CACTVS_TAUTO_COUNT>
1

> <PUBCHEM_CONFORMER_ID>
009C5D7700000001

> <PUBCHEM_MMFF94_ENERGY>
67.1641

> <PUBCHEM_FEATURE_SELFOVERLAP>
38.107

> <PUBCHEM_SHAPE_FINGERPRINT>
10369192 42 17028279133658920996
11578080 2 17987779870014297361
11582403 64 16669888950772352501
11991303 11 9643857766492640984
12156800 1 16536731083161143063
12166972 35 18200012015465159951
12363563 72 18187928309771863322
12553582 1 18337686204406542750
12788726 201 17345771818510429907
128993 33 8502361244122326890
13004483 165 18049136901131514286
13009979 54 17917438600878905974
13083527 12 18339063948600864896
13911987 19 17608965271068162356
14081887 123 15985102990155505419
14114206 34 17243877661997596266
14178342 30 16773804679586747979
14251757 17 17676196975057789081
14508693 111 16341145896422052535
14848160 33 18333453144468369690
16752209 62 16773250607715947149
17138139 8 17195999784152420166
17818456 19 17915194429154323825
1813 80 18341059510090456298
18915476 22 18042409199586520748
20626108 58 18269535235068675227
20645477 70 18187649166587828505
21315764 21 18338496604827029645
21731516 1 18119269289090402328
23559900 14 16515677883784245172
23598288 3 17176905257661614528
23728640 28 16889769909233734592
238 59 18115022047096474928
238918 7 16682624087045344000
392239 28 16914784155200912690
46194498 28 16589173643247318814
5161694 15 17022900138233910987
59025328 239 18266433521309317861
613672 6 18115580436143340402
6823239 73 15338291167280192192
7399639 24 17537163923247474905

> <PUBCHEM_SHAPE_MULTIPOLES>
494.73
8.21
3.33
2.45
4.01
0.14
-0.63
-5.76
0.88
-4.22
0.85
1.91
0.31
-2.29

> <PUBCHEM_SHAPE_SELFOVERLAP>
1100.443

> <PUBCHEM_SHAPE_VOLUME>
270.3

> <PUBCHEM_COORDINATE_TYPE>
2
5
10

$$$$
