44328638
  -OEChem-10052115143D

 46 48  0     0  0  0  0  0  0999 V2000
    1.3391    3.4906    0.0029 O   0  0  0  0  0  0  0  0  0  0  0  0
   -3.2240    3.1018   -0.0784 O   0  0  0  0  0  0  0  0  0  0  0  0
    0.8757    0.6684   -0.0669 N   0  0  0  0  0  0  0  0  0  0  0  0
   -3.4823    0.2370    0.4464 N   0  0  0  0  0  0  0  0  0  0  0  0
   -0.9777    3.6948   -0.0140 N   0  0  0  0  0  0  0  0  0  0  0  0
    9.2790   -1.8947    0.1526 N   0  0  0  0  0  0  0  0  0  0  0  0
    4.6397    0.0636    0.0560 C   0  0  0  0  0  0  0  0  0  0  0  0
    3.1408   -0.2484   -0.0172 C   0  0  0  0  0  0  0  0  0  0  0  0
    5.4724   -1.2206    0.0256 C   0  0  0  0  0  0  0  0  0  0  0  0
    2.2763    1.0095   -0.0012 C   0  0  0  0  0  0  0  0  0  0  0  0
    6.9813   -0.9702    0.1342 C   0  0  0  0  0  0  0  0  0  0  0  0
   -0.1203    1.5847   -0.0735 C   0  0  0  0  0  0  0  0  0  0  0  0
   -1.4578    1.4678   -0.0996 C   0  0  0  0  0  0  0  0  0  0  0  0
   -2.2425    0.2325   -0.1343 C   0  0  0  0  0  0  0  0  0  0  0  0
   -4.0708   -1.0011    0.3189 C   0  0  0  0  0  0  0  0  0  0  0  0
   -3.1685   -1.8162   -0.3679 C   0  0  0  0  0  0  0  0  0  0  0  0
   -2.0196   -1.0246   -0.6472 C   0  0  0  0  0  0  0  0  0  0  0  0
    7.8616   -2.2193    0.0522 C   0  0  0  0  0  0  0  0  0  0  0  0
    0.2114    3.0276   -0.0242 C   0  0  0  0  0  0  0  0  0  0  0  0
   -2.0346    2.8339   -0.0592 C   0  0  0  0  0  0  0  0  0  0  0  0
   -5.3201   -1.4570    0.7544 C   0  0  0  0  0  0  0  0  0  0  0  0
   -3.5287   -3.1522   -0.6344 C   0  0  0  0  0  0  0  0  0  0  0  0
   -5.6554   -2.7858    0.4792 C   0  0  0  0  0  0  0  0  0  0  0  0
   -4.7749   -3.6222   -0.2044 C   0  0  0  0  0  0  0  0  0  0  0  0
    4.9249    0.7063   -0.7853 H   0  0  0  0  0  0  0  0  0  0  0  0
    4.8542    0.6192    0.9767 H   0  0  0  0  0  0  0  0  0  0  0  0
    2.8611   -0.8933    0.8258 H   0  0  0  0  0  0  0  0  0  0  0  0
    2.9313   -0.8220   -0.9293 H   0  0  0  0  0  0  0  0  0  0  0  0
    5.2672   -1.7621   -0.9061 H   0  0  0  0  0  0  0  0  0  0  0  0
    5.1626   -1.8769    0.8482 H   0  0  0  0  0  0  0  0  0  0  0  0
    2.4930    1.5593    0.9224 H   0  0  0  0  0  0  0  0  0  0  0  0
    2.5617    1.6213   -0.8651 H   0  0  0  0  0  0  0  0  0  0  0  0
    7.1806   -0.4529    1.0819 H   0  0  0  0  0  0  0  0  0  0  0  0
    7.2771   -0.2769   -0.6643 H   0  0  0  0  0  0  0  0  0  0  0  0
    0.6108   -0.3103   -0.0695 H   0  0  0  0  0  0  0  0  0  0  0  0
   -3.9121    1.0273    0.9079 H   0  0  0  0  0  0  0  0  0  0  0  0
   -1.1329   -1.3487   -1.1752 H   0  0  0  0  0  0  0  0  0  0  0  0
    7.5925   -2.9130    0.8563 H   0  0  0  0  0  0  0  0  0  0  0  0
    7.6821   -2.7333   -0.8983 H   0  0  0  0  0  0  0  0  0  0  0  0
   -1.0653    4.7042    0.0171 H   0  0  0  0  0  0  0  0  0  0  0  0
   -6.0062   -0.8066    1.2865 H   0  0  0  0  0  0  0  0  0  0  0  0
   -2.8520   -3.8148   -1.1664 H   0  0  0  0  0  0  0  0  0  0  0  0
   -6.6184   -3.1715    0.8038 H   0  0  0  0  0  0  0  0  0  0  0  0
   -5.0580   -4.6517   -0.4071 H   0  0  0  0  0  0  0  0  0  0  0  0
    9.8242   -2.7557    0.1535 H   0  0  0  0  0  0  0  0  0  0  0  0
    9.4637   -1.4379    1.0447 H   0  0  0  0  0  0  0  0  0  0  0  0
  1 19  2  0  0  0  0
  2 20  2  0  0  0  0
  3 10  1  0  0  0  0
  3 12  1  0  0  0  0
  3 35  1  0  0  0  0
  4 14  1  0  0  0  0
  4 15  1  0  0  0  0
  4 36  1  0  0  0  0
  5 19  1  0  0  0  0
  5 20  1  0  0  0  0
  5 40  1  0  0  0  0
  6 18  1  0  0  0  0
  6 45  1  0  0  0  0
  6 46  1  0  0  0  0
  7  8  1  0  0  0  0
  7  9  1  0  0  0  0
  7 25  1  0  0  0  0
  7 26  1  0  0  0  0
  8 10  1  0  0  0  0
  8 27  1  0  0  0  0
  8 28  1  0  0  0  0
  9 11  1  0  0  0  0
  9 29  1  0  0  0  0
  9 30  1  0  0  0  0
 10 31  1  0  0  0  0
 10 32  1  0  0  0  0
 11 18  1  0  0  0  0
 11 33  1  0  0  0  0
 11 34  1  0  0  0  0
 12 13  2  0  0  0  0
 12 19  1  0  0  0  0
 13 14  1  0  0  0  0
 13 20  1  0  0  0  0
 14 17  2  0  0  0  0
 15 16  1  0  0  0  0
 15 21  2  0  0  0  0
 16 17  1  0  0  0  0
 16 22  2  0  0  0  0
 17 37  1  0  0  0  0
 18 38  1  0  0  0  0
 18 39  1  0  0  0  0
 21 23  1  0  0  0  0
 21 41  1  0  0  0  0
 22 24  1  0  0  0  0
 22 42  1  0  0  0  0
 23 24  2  0  0  0  0
 23 43  1  0  0  0  0
 24 44  1  0  0  0  0
M  END
> <PUBCHEM_COMPOUND_CID>
44328638

> <PUBCHEM_CONFORMER_RMSD>
1

> <PUBCHEM_CONFORMER_DIVERSEORDER>
1
82
26
68
61
22
101
130
23
90
9
89
36
123
4
39
124
70
118
122
16
10
25
93
73
24
62
48
112
51
40
65
50
78
116
71
98
41
75
103
126
57
56
119
17
79
113
21
32
77
100
97
109
53
99
74
83
114
49
128
102
42
58
38
33
45
13
54
67
52
30
64
110
92
105
12
43
121
27
95
34
107
81
18
29
85
63
59
19
87
14
91
55
47
96
108
11
117
69
84
20
94
125
2
129
44
120
111
80
88
6
66
37
115
7
106
76
35
72
8
60
104
86
127
28
46
5
15
3
31

> <PUBCHEM_MMFF94_PARTIAL_CHARGES>
29
1 -0.57
10 0.37
12 0.11
13 0.06
14 -0.2
15 -0.15
17 -0.15
18 0.27
19 0.62
2 -0.57
20 0.62
21 -0.15
22 -0.15
23 -0.15
24 -0.15
3 -0.87
35 0.4
36 0.27
37 0.15
4 0.03
40 0.37
41 0.15
42 0.15
43 0.15
44 0.15
45 0.36
46 0.36
5 -0.49
6 -0.99

> <PUBCHEM_EFFECTIVE_ROTOR_COUNT>
8.2

> <PUBCHEM_PHARMACOPHORE_FEATURES>
13
1 1 acceptor
1 2 acceptor
1 3 cation
1 3 donor
1 4 cation
1 4 donor
1 5 donor
1 6 cation
1 6 donor
4 7 8 9 11 hydrophobe
5 4 14 15 16 17 rings
5 5 12 13 19 20 rings
6 15 16 21 22 23 24 rings

> <PUBCHEM_HEAVY_ATOM_COUNT>
24

> <PUBCHEM_ATOM_DEF_STEREO_COUNT>
0

> <PUBCHEM_ATOM_UDEF_STEREO_COUNT>
0

> <PUBCHEM_BOND_DEF_STEREO_COUNT>
0

> <PUBCHEM_BOND_UDEF_STEREO_COUNT>
0

> <PUBCHEM_ISOTOPIC_ATOM_COUNT>
0

> <PUBCHEM_COMPONENT_COUNT>
1

> <PUBCHEM_CACTVS_TAUTO_COUNT>
8

> <PUBCHEM_CONFORMER_ID>
02A466BE00000001

> <PUBCHEM_MMFF94_ENERGY>
35.0199

> <PUBCHEM_FEATURE_SELFOVERLAP>
66.063

> <PUBCHEM_SHAPE_FINGERPRINT>
10050765 1 18410575110887648212
10411042 1 18337954592591314257
10622 236 17750777871442141754
11809386 21 18260542286816336818
12107183 9 18341626940612399403
12166972 35 17749391503179913678
12553582 1 18336814394754401651
12643181 29 18337668620430248054
12760667 363 18413102879481614687
13248334 5 17834113421869917017
13540713 4 18267284564695278080
13540713 5 18263946443219715340
1361 4 18337953360754228938
13631057 29 18408321060784516730
13911852 28 18267582601603036479
14420673 8 18409732898039350915
14429380 30 18336267929054377714
14844126 61 18337393742639498321
14866123 147 18411705362012054065
15042514 8 18411420583678484949
15250474 111 18044081364348452162
16120349 21 18341903974118263057
16992752 21 18411149052146728804
17492 89 18338514244173791820
17780758 139 17917714573759560602
19246450 95 18269575870677462323
20505436 4 17389102235478186128
21033648 29 14404091079087243107
22950370 63 18338521961812771717
23522609 53 18049759379411539404
23559900 14 18339913930886660697
3004659 81 17967809487826586314
335352 9 18410291407312735725
3421961 26 18196372756562654633
397830 11 18201424888824223792
4409770 3 18263076631428506133
484985 159 18335693902232158927
5104073 3 18201998824898209232
56633871 153 18272091664387148671
636775 8 18341341003492443286
77188 2 18338516468661285909
7970288 3 18337951298172745282

> <PUBCHEM_SHAPE_MULTIPOLES>
462.25
18.37
4.92
0.69
47.94
2.5
0
-25.23
2.2
-4.3
-0.25
-0.37
-0.18
-0.16

> <PUBCHEM_SHAPE_SELFOVERLAP>
988.704

> <PUBCHEM_SHAPE_VOLUME>
258.4

> <PUBCHEM_COORDINATE_TYPE>
2
5
10

$$$$
