49830949
  -OEChem-10052120443D

 25 27  0     0  0  0  0  0  0999 V2000
    1.7130   -0.5006   -0.0056 N   0  0  0  0  0  0  0  0  0  0  0  0
    1.3418    1.8679   -0.0097 N   0  0  0  0  0  0  0  0  0  0  0  0
    2.7544   -1.3672    0.0029 N   0  0  0  0  0  0  0  0  0  0  0  0
    3.5155    0.7813    0.0047 N   0  0  0  0  0  0  0  0  0  0  0  0
    5.1055   -0.9277    0.0168 N   0  0  0  0  0  0  0  0  0  0  0  0
   -0.5490    0.2202   -0.0178 C   0  0  0  0  0  0  0  0  0  0  0  0
   -2.0040    0.0097   -0.0060 C   0  0  0  0  0  0  0  0  0  0  0  0
    0.3513   -0.7764   -0.0113 C   0  0  0  0  0  0  0  0  0  0  0  0
    2.1979    0.8075   -0.0033 C   0  0  0  0  0  0  0  0  0  0  0  0
    0.0746    1.5821   -0.0161 C   0  0  0  0  0  0  0  0  0  0  0  0
   -2.7019   -0.1050   -1.2082 C   0  0  0  0  0  0  0  0  0  0  0  0
   -2.6865   -0.0754    1.2075 C   0  0  0  0  0  0  0  0  0  0  0  0
    3.8019   -0.5469    0.0080 C   0  0  0  0  0  0  0  0  0  0  0  0
   -4.0825   -0.3046   -1.1971 C   0  0  0  0  0  0  0  0  0  0  0  0
   -4.0670   -0.2751    1.2187 C   0  0  0  0  0  0  0  0  0  0  0  0
   -4.7649   -0.3897    0.0164 C   0  0  0  0  0  0  0  0  0  0  0  0
    0.0697   -1.8236   -0.0065 H   0  0  0  0  0  0  0  0  0  0  0  0
   -0.6422    2.4209   -0.0203 H   0  0  0  0  0  0  0  0  0  0  0  0
   -2.1840   -0.0403   -2.1621 H   0  0  0  0  0  0  0  0  0  0  0  0
   -2.1566    0.0125    2.1529 H   0  0  0  0  0  0  0  0  0  0  0  0
   -4.6260   -0.3938   -2.1331 H   0  0  0  0  0  0  0  0  0  0  0  0
   -4.5986   -0.3413    2.1635 H   0  0  0  0  0  0  0  0  0  0  0  0
   -5.8398   -0.5451    0.0252 H   0  0  0  0  0  0  0  0  0  0  0  0
    5.8654   -0.2549    0.0207 H   0  0  0  0  0  0  0  0  0  0  0  0
    5.3838   -1.9038    0.0199 H   0  0  0  0  0  0  0  0  0  0  0  0
  1  3  1  0  0  0  0
  1  8  1  0  0  0  0
  1  9  1  0  0  0  0
  2  9  1  0  0  0  0
  2 10  2  0  0  0  0
  3 13  2  0  0  0  0
  4  9  2  0  0  0  0
  4 13  1  0  0  0  0
  5 13  1  0  0  0  0
  5 24  1  0  0  0  0
  5 25  1  0  0  0  0
  6  7  1  0  0  0  0
  6  8  2  0  0  0  0
  6 10  1  0  0  0  0
  7 11  2  0  0  0  0
  7 12  1  0  0  0  0
  8 17  1  0  0  0  0
 10 18  1  0  0  0  0
 11 14  1  0  0  0  0
 11 19  1  0  0  0  0
 12 15  2  0  0  0  0
 12 20  1  0  0  0  0
 14 16  2  0  0  0  0
 14 21  1  0  0  0  0
 15 16  1  0  0  0  0
 15 22  1  0  0  0  0
 16 23  1  0  0  0  0
M  END
> <PUBCHEM_COMPOUND_CID>
49830949

> <PUBCHEM_CONFORMER_RMSD>
0.6

> <PUBCHEM_CONFORMER_DIVERSEORDER>
1
2

> <PUBCHEM_MMFF94_PARTIAL_CHARGES>
25
1 0.6
10 0.38
11 -0.15
12 -0.15
13 0.6
14 -0.15
15 -0.15
16 -0.15
17 0.15
18 0.06
19 0.15
2 -0.58
20 0.15
21 0.15
22 0.15
23 0.15
24 0.4
25 0.4
3 -0.71
4 -0.57
5 -0.88
6 -0.01
7 0.03
8 -0.18
9 0.31

> <PUBCHEM_EFFECTIVE_ROTOR_COUNT>
1

> <PUBCHEM_PHARMACOPHORE_FEATURES>
7
1 2 acceptor
1 5 donor
4 1 2 4 9 cation
4 3 4 5 13 cation
5 1 3 4 9 13 rings
6 1 2 6 8 9 10 rings
6 7 11 12 14 15 16 rings

> <PUBCHEM_HEAVY_ATOM_COUNT>
16

> <PUBCHEM_ATOM_DEF_STEREO_COUNT>
0

> <PUBCHEM_ATOM_UDEF_STEREO_COUNT>
0

> <PUBCHEM_BOND_DEF_STEREO_COUNT>
0

> <PUBCHEM_BOND_UDEF_STEREO_COUNT>
0

> <PUBCHEM_ISOTOPIC_ATOM_COUNT>
0

> <PUBCHEM_COMPONENT_COUNT>
1

> <PUBCHEM_CACTVS_TAUTO_COUNT>
2

> <PUBCHEM_CONFORMER_ID>
02F85C2500000001

> <PUBCHEM_MMFF94_ENERGY>
41.6079

> <PUBCHEM_FEATURE_SELFOVERLAP>
35.825

> <PUBCHEM_SHAPE_FINGERPRINT>
11471102 20 18408885165667357084
11578080 2 17487305262890001913
11615757 297 18413107286128401811
11796584 16 16660636320116978586
12032990 46 18261114071116357624
12186901 62 16081081576642414223
12236239 1 17775286080018888247
124424 183 18040715870243834403
12916754 54 18339357595620069151
13296908 3 17894630370331950265
13581323 91 16343985814639094085
13690532 89 18413106164756958574
13760787 5 18411141354842699460
13862211 1 18410569557684299354
14252887 29 18201443541218583598
14386348 63 17894352185342496939
15242439 84 17676482844033930695
15375462 189 18130787849763950242
15653759 3 17240199958674117353
17862501 102 17561361785803281707
1813 80 18271823284643956380
18186145 218 17458060469540530977
19026448 4 17022903479644705180
19026448 5 17131833196077903240
1986462 14 16660362580486896535
200 152 18272083903391027541
20279233 1 17821729442222416595
20325693 3 15864070962478799235
20645477 70 18408037403373777286
21267235 1 18412834568548082502
22094290 60 16225765212002918581
221490 88 18191028017423154971
22646028 1 17917709119409524527
2297311 6 16443071582205025815
23175994 123 18186524302148081269
23402539 116 18202560653078701317
23557571 272 16805601430501575095
23559900 14 17022615356332901050
26918003 58 18408044013549693315
42 15 16702305637176252926
474 4 17699836620973786824
4990 188 13262678110668632786
573450 72 17060619993063978027
602551 16 15123218992005349677
77492 1 17703513280888412397
9981440 41 16907471461856352193

> <PUBCHEM_SHAPE_MULTIPOLES>
304.37
9.5
1.25
0.98
1.28
0.41
0.01
-2.77
0.07
1.08
-0.01
-1.33
-0.06
-0.02

> <PUBCHEM_SHAPE_SELFOVERLAP>
675.736

> <PUBCHEM_SHAPE_VOLUME>
157.5

> <PUBCHEM_COORDINATE_TYPE>
2
5
10

$$$$
