10143231
  -OEChem-10062121583D

 68 73  0     0  0  0  0  0  0999 V2000
   -2.0565    3.4127   -0.7917 O   0  0  0  0  0  0  0  0  0  0  0  0
   -2.0600   -3.4093    0.7920 O   0  0  0  0  0  0  0  0  0  0  0  0
    5.0174    2.1659    0.7438 O   0  0  0  0  0  0  0  0  0  0  0  0
    5.0155   -2.1690   -0.7431 O   0  0  0  0  0  0  0  0  0  0  0  0
   -4.0421    1.2257   -0.8074 O   0  0  0  0  0  0  0  0  0  0  0  0
   -4.0456   -1.2224    0.8094 O   0  0  0  0  0  0  0  0  0  0  0  0
    0.6778    3.1422    0.3938 N   0  0  0  0  0  0  0  0  0  0  0  0
    0.6753   -3.1419   -0.3924 N   0  0  0  0  0  0  0  0  0  0  0  0
    5.4142   -0.0019    0.0009 N   0  0  0  0  0  0  0  0  0  0  0  0
   -1.0247    2.3949    1.9437 N   0  0  0  0  0  0  0  0  0  0  0  0
   -1.0247   -2.3950   -1.9452 N   0  0  0  0  0  0  0  0  0  0  0  0
    2.1286    1.4624    0.5322 C   0  0  0  0  0  0  0  0  0  0  0  0
    2.1277   -1.4636   -0.5312 C   0  0  0  0  0  0  0  0  0  0  0  0
    3.2385    0.6325    0.2252 C   0  0  0  0  0  0  0  0  0  0  0  0
    3.2380   -0.6345   -0.2241 C   0  0  0  0  0  0  0  0  0  0  0  0
    1.0432    1.1882    1.4150 C   0  0  0  0  0  0  0  0  0  0  0  0
    1.0433   -1.1894   -1.4154 C   0  0  0  0  0  0  0  0  0  0  0  0
    0.1536    2.2556    1.3021 C   0  0  0  0  0  0  0  0  0  0  0  0
    0.1529   -2.2560   -1.3024 C   0  0  0  0  0  0  0  0  0  0  0  0
    1.8944    2.6904   -0.0507 C   0  0  0  0  0  0  0  0  0  0  0  0
    1.8918   -2.6906    0.0530 C   0  0  0  0  0  0  0  0  0  0  0  0
    0.0334    4.3577   -0.0799 C   0  0  0  0  0  0  0  0  0  0  0  0
    0.0292   -4.3563    0.0816 C   0  0  0  0  0  0  0  0  0  0  0  0
    4.6481    1.0673    0.3652 C   0  0  0  0  0  0  0  0  0  0  0  0
    4.6472   -1.0703   -0.3641 C   0  0  0  0  0  0  0  0  0  0  0  0
    0.6887    0.1492    2.2956 C   0  0  0  0  0  0  0  0  0  0  0  0
    0.6904   -0.1507   -2.2970 C   0  0  0  0  0  0  0  0  0  0  0  0
   -0.8898    4.0859   -1.2631 C   0  0  0  0  0  0  0  0  0  0  0  0
   -0.8940   -4.0832    1.2643 C   0  0  0  0  0  0  0  0  0  0  0  0
   -0.5212    0.2462    2.9776 C   0  0  0  0  0  0  0  0  0  0  0  0
   -0.5186   -0.2476   -2.9802 C   0  0  0  0  0  0  0  0  0  0  0  0
   -1.3153    1.3617    2.7644 C   0  0  0  0  0  0  0  0  0  0  0  0
   -1.3135   -1.3626   -2.7675 C   0  0  0  0  0  0  0  0  0  0  0  0
   -2.9719    3.1211   -1.8464 C   0  0  0  0  0  0  0  0  0  0  0  0
   -2.9781   -3.1215    1.8454 C   0  0  0  0  0  0  0  0  0  0  0  0
   -4.2486    2.5788   -1.2254 C   0  0  0  0  0  0  0  0  0  0  0  0
   -4.2531   -2.5766    1.2231 C   0  0  0  0  0  0  0  0  0  0  0  0
   -5.1456    0.7618   -0.0270 C   0  0  0  0  0  0  0  0  0  0  0  0
   -5.1461   -0.7575    0.0256 C   0  0  0  0  0  0  0  0  0  0  0  0
    2.4622    3.2525   -0.7812 H   0  0  0  0  0  0  0  0  0  0  0  0
    2.4581   -3.2523    0.7849 H   0  0  0  0  0  0  0  0  0  0  0  0
    0.8285    5.0543   -0.3677 H   0  0  0  0  0  0  0  0  0  0  0  0
   -0.5130    4.7907    0.7653 H   0  0  0  0  0  0  0  0  0  0  0  0
    0.8235   -5.0537    0.3701 H   0  0  0  0  0  0  0  0  0  0  0  0
   -0.5172   -4.7893   -0.7635 H   0  0  0  0  0  0  0  0  0  0  0  0
    6.4279   -0.0023    0.0009 H   0  0  0  0  0  0  0  0  0  0  0  0
    1.3317   -0.7119    2.4461 H   0  0  0  0  0  0  0  0  0  0  0  0
    1.3341    0.7100   -2.4471 H   0  0  0  0  0  0  0  0  0  0  0  0
   -1.1887    5.0400   -1.7113 H   0  0  0  0  0  0  0  0  0  0  0  0
   -0.3909    3.4745   -2.0242 H   0  0  0  0  0  0  0  0  0  0  0  0
   -1.1938   -5.0371    1.7128 H   0  0  0  0  0  0  0  0  0  0  0  0
   -0.3952   -3.4718    2.0254 H   0  0  0  0  0  0  0  0  0  0  0  0
   -0.8343   -0.5359    3.6606 H   0  0  0  0  0  0  0  0  0  0  0  0
   -0.8305    0.5341   -3.6644 H   0  0  0  0  0  0  0  0  0  0  0  0
   -2.2646    1.4558    3.2849 H   0  0  0  0  0  0  0  0  0  0  0  0
   -2.2620   -1.4569   -3.2894 H   0  0  0  0  0  0  0  0  0  0  0  0
   -2.5201    2.3879   -2.5226 H   0  0  0  0  0  0  0  0  0  0  0  0
   -3.1968    4.0429   -2.3939 H   0  0  0  0  0  0  0  0  0  0  0  0
   -2.5280   -2.3909    2.5255 H   0  0  0  0  0  0  0  0  0  0  0  0
   -3.2046   -4.0454    2.3889 H   0  0  0  0  0  0  0  0  0  0  0  0
   -4.5390    3.1893   -0.3621 H   0  0  0  0  0  0  0  0  0  0  0  0
   -5.0522    2.5893   -1.9698 H   0  0  0  0  0  0  0  0  0  0  0  0
   -4.5417   -3.1847    0.3575 H   0  0  0  0  0  0  0  0  0  0  0  0
   -5.0584   -2.5891    1.9656 H   0  0  0  0  0  0  0  0  0  0  0  0
   -6.0868    1.0977   -0.4779 H   0  0  0  0  0  0  0  0  0  0  0  0
   -5.0548    1.1828    0.9803 H   0  0  0  0  0  0  0  0  0  0  0  0
   -6.0890   -1.0928    0.4736 H   0  0  0  0  0  0  0  0  0  0  0  0
   -5.0526   -1.1784   -0.9815 H   0  0  0  0  0  0  0  0  0  0  0  0
  1 28  1  0  0  0  0
  1 34  1  0  0  0  0
  2 29  1  0  0  0  0
  2 35  1  0  0  0  0
  3 24  2  0  0  0  0
  4 25  2  0  0  0  0
  5 36  1  0  0  0  0
  5 38  1  0  0  0  0
  6 37  1  0  0  0  0
  6 39  1  0  0  0  0
  7 18  1  0  0  0  0
  7 20  1  0  0  0  0
  7 22  1  0  0  0  0
  8 19  1  0  0  0  0
  8 21  1  0  0  0  0
  8 23  1  0  0  0  0
  9 24  1  0  0  0  0
  9 25  1  0  0  0  0
  9 46  1  0  0  0  0
 10 18  1  0  0  0  0
 10 32  2  0  0  0  0
 11 19  1  0  0  0  0
 11 33  2  0  0  0  0
 12 14  1  0  0  0  0
 12 16  1  0  0  0  0
 12 20  2  0  0  0  0
 13 15  1  0  0  0  0
 13 17  1  0  0  0  0
 13 21  2  0  0  0  0
 14 15  2  0  0  0  0
 14 24  1  0  0  0  0
 15 25  1  0  0  0  0
 16 18  2  0  0  0  0
 16 26  1  0  0  0  0
 17 19  2  0  0  0  0
 17 27  1  0  0  0  0
 20 40  1  0  0  0  0
 21 41  1  0  0  0  0
 22 28  1  0  0  0  0
 22 42  1  0  0  0  0
 22 43  1  0  0  0  0
 23 29  1  0  0  0  0
 23 44  1  0  0  0  0
 23 45  1  0  0  0  0
 26 30  2  0  0  0  0
 26 47  1  0  0  0  0
 27 31  2  0  0  0  0
 27 48  1  0  0  0  0
 28 49  1  0  0  0  0
 28 50  1  0  0  0  0
 29 51  1  0  0  0  0
 29 52  1  0  0  0  0
 30 32  1  0  0  0  0
 30 53  1  0  0  0  0
 31 33  1  0  0  0  0
 31 54  1  0  0  0  0
 32 55  1  0  0  0  0
 33 56  1  0  0  0  0
 34 36  1  0  0  0  0
 34 57  1  0  0  0  0
 34 58  1  0  0  0  0
 35 37  1  0  0  0  0
 35 59  1  0  0  0  0
 35 60  1  0  0  0  0
 36 61  1  0  0  0  0
 36 62  1  0  0  0  0
 37 63  1  0  0  0  0
 37 64  1  0  0  0  0
 38 39  1  0  0  0  0
 38 65  1  0  0  0  0
 38 66  1  0  0  0  0
 39 67  1  0  0  0  0
 39 68  1  0  0  0  0
M  END
> <PUBCHEM_COMPOUND_CID>
10143231

> <PUBCHEM_CONFORMER_RMSD>
0.8

> <PUBCHEM_CONFORMER_DIVERSEORDER>
1
17
3
25
26
10
9
24
12
18
27
15
4
19
2
14
16
21
8
23
7
28
13
5
20
6
11
22

> <PUBCHEM_MMFF94_PARTIAL_CHARGES>
46
1 -0.56
10 -0.57
11 -0.57
12 -0.05
13 -0.05
14 0.06
15 0.06
18 0.11
19 0.11
2 -0.56
20 -0.3
21 -0.3
22 0.26
23 0.26
24 0.62
25 0.62
26 -0.15
27 -0.15
28 0.28
29 0.28
3 -0.57
30 -0.15
31 -0.15
32 0.16
33 0.16
34 0.28
35 0.28
36 0.28
37 0.28
38 0.28
39 0.28
4 -0.57
40 0.15
41 0.15
46 0.37
47 0.15
48 0.15
5 -0.56
53 0.15
54 0.15
55 0.15
56 0.15
6 -0.56
7 0.05
8 0.05
9 -0.49

> <PUBCHEM_EFFECTIVE_ROTOR_COUNT>
3

> <PUBCHEM_PHARMACOPHORE_FEATURES>
16
1 1 acceptor
1 10 acceptor
1 11 acceptor
1 2 acceptor
1 3 acceptor
1 4 acceptor
1 5 acceptor
1 6 acceptor
1 7 cation
1 8 cation
1 9 donor
5 7 12 16 18 20 rings
5 8 13 17 19 21 rings
5 9 14 15 24 25 rings
6 10 16 18 26 30 32 rings
6 11 17 19 27 31 33 rings

> <PUBCHEM_HEAVY_ATOM_COUNT>
39

> <PUBCHEM_ATOM_DEF_STEREO_COUNT>
0

> <PUBCHEM_ATOM_UDEF_STEREO_COUNT>
0

> <PUBCHEM_BOND_DEF_STEREO_COUNT>
0

> <PUBCHEM_BOND_UDEF_STEREO_COUNT>
0

> <PUBCHEM_ISOTOPIC_ATOM_COUNT>
0

> <PUBCHEM_COMPONENT_COUNT>
1

> <PUBCHEM_CACTVS_TAUTO_COUNT>
2

> <PUBCHEM_CONFORMER_ID>
009AC5FF00000001

> <PUBCHEM_MMFF94_ENERGY>
76.89

> <PUBCHEM_FEATURE_SELFOVERLAP>
81.427

> <PUBCHEM_SHAPE_FINGERPRINT>
10675989 125 17832138325972467329
11828532 37 17315650745086771899
12156800 1 18044400410997104085
13402501 40 18411419514552796933
15975801 100 17023454236481320901
20764821 26 18409173195170206905
3493558 16 16590862591786336332
35225 105 17463929727377117183
463206 1 16246320238297428337
46939830 39 18043263533117007484

> <PUBCHEM_SHAPE_MULTIPOLES>
742.48
8.51
5.94
2.63
0.66
0.01
-0.01
-0.01
0.01
-2.98
0
-1.51
0
2.51

> <PUBCHEM_SHAPE_SELFOVERLAP>
1631.918

> <PUBCHEM_SHAPE_VOLUME>
399.4

> <PUBCHEM_COORDINATE_TYPE>
2
5
10

$$$$
