49830345
  -OEChem-10052115183D

 64 68  0     1  0  0  0  0  0999 V2000
   -3.5013    0.1023    1.7240 S   0  0  0  0  0  0  0  0  0  0  0  0
   -8.4221   -3.0353   -0.2831 O   0  0  0  0  0  0  0  0  0  0  0  0
  -10.8929   -3.5960    0.9740 O   0  0  0  0  0  0  0  0  0  0  0  0
    5.1222   -0.9371   -0.0889 O   0  0  0  0  0  0  0  0  0  0  0  0
   11.5383   -1.7546   -0.6536 O   0  0  0  0  0  0  0  0  0  0  0  0
   -7.8757   -0.0261   -0.3678 N   0  0  0  0  0  0  0  0  0  0  0  0
   -7.8762    0.7802    0.7074 N   0  0  0  0  0  0  0  0  0  0  0  0
   -2.8985    1.8706   -2.3469 N   0  0  0  0  0  0  0  0  0  0  0  0
   -0.5686    1.8835   -1.9485 N   0  0  0  0  0  0  0  0  0  0  0  0
    4.4267    1.1168    0.7985 N   0  0  0  0  0  0  0  0  0  0  0  0
    6.6817    0.6878    0.5404 N   0  0  0  0  0  0  0  0  0  0  0  0
   -2.1028    1.0414   -0.2372 C   0  0  0  0  0  0  0  0  0  0  0  0
   -3.4226    0.7780    0.1403 C   0  0  0  0  0  0  0  0  0  0  0  0
   -4.4934    1.0565   -0.7174 C   0  0  0  0  0  0  0  0  0  0  0  0
   -1.1831    0.6747    0.8015 C   0  0  0  0  0  0  0  0  0  0  0  0
   -5.8508    0.7928   -0.3485 C   0  0  0  0  0  0  0  0  0  0  0  0
   -9.0694   -0.7595   -0.7142 C   0  0  0  0  0  0  0  0  0  0  0  0
   -9.2756   -1.9868    0.1796 C   0  0  1  0  0  0  0  0  0  0  0  0
   -6.6864   -0.0541   -1.0351 C   0  0  0  0  0  0  0  0  0  0  0  0
    0.2549    0.7875    0.8013 C   0  0  0  0  0  0  0  0  0  0  0  0
   -1.8757    1.5958   -1.5069 C   0  0  0  0  0  0  0  0  0  0  0  0
   -1.8078    0.1565    1.9111 C   0  0  0  0  0  0  0  0  0  0  0  0
   -4.1556    1.6015   -1.9437 C   0  0  0  0  0  0  0  0  0  0  0  0
   -6.6367    1.2777    0.7140 C   0  0  0  0  0  0  0  0  0  0  0  0
  -10.7201   -2.4773    0.1103 C   0  0  0  0  0  0  0  0  0  0  0  0
    1.0374   -0.2676    0.3320 C   0  0  0  0  0  0  0  0  0  0  0  0
    0.8630    1.9522    1.2697 C   0  0  0  0  0  0  0  0  0  0  0  0
    3.0359    1.0065    0.8001 C   0  0  0  0  0  0  0  0  0  0  0  0
    2.4279   -0.1582    0.3314 C   0  0  0  0  0  0  0  0  0  0  0  0
    2.2536    2.0617    1.2692 C   0  0  0  0  0  0  0  0  0  0  0  0
    5.3881    0.1702    0.3674 C   0  0  0  0  0  0  0  0  0  0  0  0
    7.9162    0.0666    0.2367 C   0  0  0  0  0  0  0  0  0  0  0  0
    9.1135    0.7398    0.4790 C   0  0  0  0  0  0  0  0  0  0  0  0
    7.9360   -1.2188   -0.3047 C   0  0  0  0  0  0  0  0  0  0  0  0
   10.3307    0.1280    0.1798 C   0  0  0  0  0  0  0  0  0  0  0  0
    9.1532   -1.8307   -0.6040 C   0  0  0  0  0  0  0  0  0  0  0  0
   10.3505   -1.1574   -0.3618 C   0  0  0  0  0  0  0  0  0  0  0  0
   11.4854   -3.0694   -1.2050 C   0  0  0  0  0  0  0  0  0  0  0  0
   -8.9900   -1.0472   -1.7691 H   0  0  0  0  0  0  0  0  0  0  0  0
   -9.9035   -0.0545   -0.6157 H   0  0  0  0  0  0  0  0  0  0  0  0
   -9.0096   -1.7888    1.2246 H   0  0  0  0  0  0  0  0  0  0  0  0
   -6.5409   -0.6622   -1.9184 H   0  0  0  0  0  0  0  0  0  0  0  0
   -1.3584   -0.1966    2.8299 H   0  0  0  0  0  0  0  0  0  0  0  0
   -4.9178    1.8548   -2.6762 H   0  0  0  0  0  0  0  0  0  0  0  0
   -6.3647    1.9759    1.4932 H   0  0  0  0  0  0  0  0  0  0  0  0
  -11.4161   -1.6921    0.4219 H   0  0  0  0  0  0  0  0  0  0  0  0
  -10.9715   -2.8022   -0.9050 H   0  0  0  0  0  0  0  0  0  0  0  0
    0.5777   -1.1813   -0.0377 H   0  0  0  0  0  0  0  0  0  0  0  0
    0.2675    2.7845    1.6376 H   0  0  0  0  0  0  0  0  0  0  0  0
    2.9622   -1.0174   -0.0478 H   0  0  0  0  0  0  0  0  0  0  0  0
    2.7140    2.9753    1.6366 H   0  0  0  0  0  0  0  0  0  0  0  0
    0.2527    1.7129   -1.3942 H   0  0  0  0  0  0  0  0  0  0  0  0
   -0.4601    2.2819   -2.8723 H   0  0  0  0  0  0  0  0  0  0  0  0
   -7.5031   -2.7389   -0.1703 H   0  0  0  0  0  0  0  0  0  0  0  0
    4.7957    1.9950    1.1547 H   0  0  0  0  0  0  0  0  0  0  0  0
  -11.8216   -3.8739    0.8976 H   0  0  0  0  0  0  0  0  0  0  0  0
    6.7503    1.6239    0.9317 H   0  0  0  0  0  0  0  0  0  0  0  0
    9.1121    1.7418    0.9007 H   0  0  0  0  0  0  0  0  0  0  0  0
    7.0536   -1.8039   -0.5206 H   0  0  0  0  0  0  0  0  0  0  0  0
   11.2602    0.6574    0.3707 H   0  0  0  0  0  0  0  0  0  0  0  0
    9.0975   -2.8299   -1.0226 H   0  0  0  0  0  0  0  0  0  0  0  0
   12.5184   -3.3902   -1.3753 H   0  0  0  0  0  0  0  0  0  0  0  0
   10.9838   -3.0776   -2.1787 H   0  0  0  0  0  0  0  0  0  0  0  0
   11.0410   -3.7829   -0.5028 H   0  0  0  0  0  0  0  0  0  0  0  0
  1 13  1  0  0  0  0
  1 22  1  0  0  0  0
  2 18  1  0  0  0  0
  2 54  1  0  0  0  0
  3 25  1  0  0  0  0
  3 56  1  0  0  0  0
  4 31  2  0  0  0  0
  5 37  1  0  0  0  0
  5 38  1  0  0  0  0
  6  7  1  0  0  0  0
  6 17  1  0  0  0  0
  6 19  1  0  0  0  0
  7 24  2  0  0  0  0
  8 21  2  0  0  0  0
  8 23  1  0  0  0  0
  9 21  1  0  0  0  0
  9 52  1  0  0  0  0
  9 53  1  0  0  0  0
 10 28  1  0  0  0  0
 10 31  1  0  0  0  0
 10 55  1  0  0  0  0
 11 31  1  0  0  0  0
 11 32  1  0  0  0  0
 11 57  1  0  0  0  0
 12 13  2  0  0  0  0
 12 15  1  0  0  0  0
 12 21  1  0  0  0  0
 13 14  1  0  0  0  0
 14 16  1  0  0  0  0
 14 23  2  0  0  0  0
 15 20  1  0  0  0  0
 15 22  2  0  0  0  0
 16 19  2  0  0  0  0
 16 24  1  0  0  0  0
 17 18  1  0  0  0  0
 17 39  1  0  0  0  0
 17 40  1  0  0  0  0
 18 25  1  0  0  0  0
 18 41  1  0  0  0  0
 19 42  1  0  0  0  0
 20 26  2  0  0  0  0
 20 27  1  0  0  0  0
 22 43  1  0  0  0  0
 23 44  1  0  0  0  0
 24 45  1  0  0  0  0
 25 46  1  0  0  0  0
 25 47  1  0  0  0  0
 26 29  1  0  0  0  0
 26 48  1  0  0  0  0
 27 30  2  0  0  0  0
 27 49  1  0  0  0  0
 28 29  2  0  0  0  0
 28 30  1  0  0  0  0
 29 50  1  0  0  0  0
 30 51  1  0  0  0  0
 32 33  2  0  0  0  0
 32 34  1  0  0  0  0
 33 35  1  0  0  0  0
 33 58  1  0  0  0  0
 34 36  2  0  0  0  0
 34 59  1  0  0  0  0
 35 37  2  0  0  0  0
 35 60  1  0  0  0  0
 36 37  1  0  0  0  0
 36 61  1  0  0  0  0
 38 62  1  0  0  0  0
 38 63  1  0  0  0  0
 38 64  1  0  0  0  0
M  END
> <PUBCHEM_COMPOUND_CID>
49830345

> <PUBCHEM_CONFORMER_RMSD>
1

> <PUBCHEM_CONFORMER_DIVERSEORDER>
1
19
31
35
32
18
11
25
14
27
21
15
10
13
29
2
34
33
17
26
6
22
5
23
9
20
7
12
28
8
24
30
3
4
16

> <PUBCHEM_MMFF94_PARTIAL_CHARGES>
55
1 -0.08
10 -0.55
11 -0.55
13 0.04
14 0.05
15 -0.05
16 -0.05
17 0.26
18 0.28
19 -0.3
2 -0.68
20 0.05
21 0.41
22 -0.11
23 0.16
24 0.14
25 0.28
26 -0.15
27 -0.15
28 0.12
29 -0.15
3 -0.68
30 -0.15
31 0.69
32 0.12
33 -0.15
34 -0.15
35 -0.15
36 -0.15
37 0.08
38 0.28
4 -0.57
42 0.15
43 0.15
44 0.15
45 0.15
48 0.15
49 0.15
5 -0.36
50 0.15
51 0.15
52 0.4
53 0.4
54 0.4
55 0.37
56 0.4
57 0.37
58 0.15
59 0.15
6 0.31
60 0.15
61 0.15
7 -0.71
8 -0.62
9 -0.9

> <PUBCHEM_EFFECTIVE_ROTOR_COUNT>
10

> <PUBCHEM_PHARMACOPHORE_FEATURES>
16
1 10 donor
1 11 donor
1 2 acceptor
1 2 donor
1 3 acceptor
1 3 donor
1 4 acceptor
1 5 acceptor
1 7 acceptor
1 9 donor
3 8 9 21 cation
5 1 12 13 15 22 rings
5 6 7 16 19 24 rings
6 20 26 27 28 29 30 rings
6 32 33 34 35 36 37 rings
6 8 12 13 14 21 23 rings

> <PUBCHEM_HEAVY_ATOM_COUNT>
38

> <PUBCHEM_ATOM_DEF_STEREO_COUNT>
0

> <PUBCHEM_ATOM_UDEF_STEREO_COUNT>
1

> <PUBCHEM_BOND_DEF_STEREO_COUNT>
0

> <PUBCHEM_BOND_UDEF_STEREO_COUNT>
0

> <PUBCHEM_ISOTOPIC_ATOM_COUNT>
0

> <PUBCHEM_COMPONENT_COUNT>
1

> <PUBCHEM_CACTVS_TAUTO_COUNT>
6

> <PUBCHEM_CONFORMER_ID>
02F859C900000001

> <PUBCHEM_MMFF94_ENERGY>
119.476

> <PUBCHEM_FEATURE_SELFOVERLAP>
81.321

> <PUBCHEM_SHAPE_FINGERPRINT>
10 15 10087633798548045264
10076449 9 18259703380481667809
10299344 5 16486968480759983456
10429389 143 10665223748791657941
10533779 47 14764359223544470180
10674148 151 11312055448359269343
11135926 11 15984811602505578612
11408170 108 16630252407932991294
11456790 92 12679178353855245171
11463208 3 18341896329335867519
12082328 90 18272086046601469892
12089408 11 15267050472386645184
12522641 33 14345797124699038952
12559415 141 17989214750496161942
12559415 90 8358261428008742922
12758862 11 17821733857982197048
13553643 46 11455883651195293962
14118638 360 17168420446995204400
14202775 3 18272655636685308790
14279260 333 17632578232482989827
14395042 24 13110969746705182299
15065858 18 18342452626273599632
15247644 1 18412545418164867719
15461852 350 18040150712497874989
15510794 2 18341896299027763018
1818759 1 17775283855336637838
20105231 36 18343864419971579655
21026386 10 18263934388201687675
21362267 20 17774715467433661231
21362267 313 9511195027718418380
21792961 116 18187367580812510408
21792965 68 17845659141689504649
21895431 317 17986111800709375486
232437 2 18130787846122974048
24771293 8 14490754499304118692
306946 40 8502659199068134155
335352 9 16443062811576014625
4017518 198 18187083953920619411
4149490 64 17774718778973693016
4516262 110 12901543534122700200
45377200 153 18336261340595950627
4760202 170 12973891433585052262
5028188 123 18187081737827841637
54039377 194 17989484121584436229
57676310 188 18187079530093845987
636775 8 18187364355466085431
6691757 9 16226059855175942153
9937071 3 17203892942754387366

> <PUBCHEM_SHAPE_MULTIPOLES>
732.51
44.72
2.65
1.53
49.24
2.41
0.41
45.56
4.94
-3.03
0.22
-1.63
-0.69
3.83

> <PUBCHEM_SHAPE_SELFOVERLAP>
1598.006

> <PUBCHEM_SHAPE_VOLUME>
401.8

> <PUBCHEM_COORDINATE_TYPE>
2
5
10

$$$$
