10473563
  -OEChem-10062121563D

 39 42  0     0  0  0  0  0  0999 V2000
   -1.4055   -0.2676    2.4471 F   0  0  0  0  0  0  0  0  0  0  0  0
   -4.1668   -1.6934   -2.0547 F   0  0  0  0  0  0  0  0  0  0  0  0
   -3.7603   -3.5151   -0.0569 F   0  0  0  0  0  0  0  0  0  0  0  0
   -0.4535    3.4285    0.3391 O   0  0  0  0  0  0  0  0  0  0  0  0
    2.4863    0.0528   -0.4200 N   0  0  0  0  0  0  0  0  0  0  0  0
    4.2689   -1.1656   -0.8146 N   0  0  0  0  0  0  0  0  0  0  0  0
    3.7156   -0.8135   -2.0294 N   0  0  0  0  0  0  0  0  0  0  0  0
   -2.4848    2.6927    1.0081 N   0  0  0  0  0  0  0  0  0  0  0  0
    3.7411   -0.7629    1.5875 C   0  0  0  0  0  0  0  0  0  0  0  0
    3.5240   -0.6420    0.1333 C   0  0  0  0  0  0  0  0  0  0  0  0
    2.6477   -0.0838   -1.7870 C   0  0  0  0  0  0  0  0  0  0  0  0
    0.5295    1.3786   -0.5992 C   0  0  0  0  0  0  0  0  0  0  0  0
    1.4523    0.7649    0.1765 C   0  0  0  0  0  0  0  0  0  0  0  0
    5.2369   -0.8478    1.9760 C   0  0  0  0  0  0  0  0  0  0  0  0
    2.9817   -1.9535    2.2210 C   0  0  0  0  0  0  0  0  0  0  0  0
   -0.5391    2.0998    0.0347 C   0  0  0  0  0  0  0  0  0  0  0  0
    1.6887    0.5489   -2.6199 C   0  0  0  0  0  0  0  0  0  0  0  0
    0.6804    1.2435   -2.0581 C   0  0  0  0  0  0  0  0  0  0  0  0
   -1.7781    1.6608    0.4455 C   0  0  0  0  0  0  0  0  0  0  0  0
   -2.2867    0.3287    0.3199 C   0  0  0  0  0  0  0  0  0  0  0  0
   -2.0810   -0.6051    1.3386 C   0  0  0  0  0  0  0  0  0  0  0  0
   -2.9929   -0.0431   -0.8268 C   0  0  0  0  0  0  0  0  0  0  0  0
   -1.6540    3.7066    0.9172 C   0  0  0  0  0  0  0  0  0  0  0  0
   -3.4900   -1.3402   -0.9541 C   0  0  0  0  0  0  0  0  0  0  0  0
   -2.5779   -1.9021    1.2114 C   0  0  0  0  0  0  0  0  0  0  0  0
   -3.2825   -2.2698    0.0651 C   0  0  0  0  0  0  0  0  0  0  0  0
    3.3744    0.1463    2.0806 H   0  0  0  0  0  0  0  0  0  0  0  0
    1.4176    0.7995    1.2595 H   0  0  0  0  0  0  0  0  0  0  0  0
    5.6992   -1.7559    1.5731 H   0  0  0  0  0  0  0  0  0  0  0  0
    5.3556   -0.8584    3.0646 H   0  0  0  0  0  0  0  0  0  0  0  0
    5.7883    0.0130    1.5820 H   0  0  0  0  0  0  0  0  0  0  0  0
    1.9061   -1.8754    2.0293 H   0  0  0  0  0  0  0  0  0  0  0  0
    3.1322   -1.9790    3.3052 H   0  0  0  0  0  0  0  0  0  0  0  0
    3.3275   -2.9053    1.8025 H   0  0  0  0  0  0  0  0  0  0  0  0
    1.7763    0.4654   -3.6973 H   0  0  0  0  0  0  0  0  0  0  0  0
   -0.0599    1.7297   -2.6865 H   0  0  0  0  0  0  0  0  0  0  0  0
   -3.1638    0.6685   -1.6313 H   0  0  0  0  0  0  0  0  0  0  0  0
   -1.8075    4.7244    1.2428 H   0  0  0  0  0  0  0  0  0  0  0  0
   -2.4162   -2.6258    2.0046 H   0  0  0  0  0  0  0  0  0  0  0  0
  1 21  1  0  0  0  0
  2 24  1  0  0  0  0
  3 26  1  0  0  0  0
  4 16  1  0  0  0  0
  4 23  1  0  0  0  0
  5 10  1  0  0  0  0
  5 11  1  0  0  0  0
  5 13  1  0  0  0  0
  6  7  1  0  0  0  0
  6 10  2  0  0  0  0
  7 11  2  0  0  0  0
  8 19  1  0  0  0  0
  8 23  2  0  0  0  0
  9 10  1  0  0  0  0
  9 14  1  0  0  0  0
  9 15  1  0  0  0  0
  9 27  1  0  0  0  0
 11 17  1  0  0  0  0
 12 13  2  0  0  0  0
 12 16  1  0  0  0  0
 12 18  1  0  0  0  0
 13 28  1  0  0  0  0
 14 29  1  0  0  0  0
 14 30  1  0  0  0  0
 14 31  1  0  0  0  0
 15 32  1  0  0  0  0
 15 33  1  0  0  0  0
 15 34  1  0  0  0  0
 16 19  2  0  0  0  0
 17 18  2  0  0  0  0
 17 35  1  0  0  0  0
 18 36  1  0  0  0  0
 19 20  1  0  0  0  0
 20 21  1  0  0  0  0
 20 22  2  0  0  0  0
 21 25  2  0  0  0  0
 22 24  1  0  0  0  0
 22 37  1  0  0  0  0
 23 38  1  0  0  0  0
 24 26  2  0  0  0  0
 25 26  1  0  0  0  0
 25 39  1  0  0  0  0
M  END
> <PUBCHEM_COMPOUND_CID>
10473563

> <PUBCHEM_CONFORMER_RMSD>
0.6

> <PUBCHEM_CONFORMER_DIVERSEORDER>
1
31
9
6
30
24
26
19
20
4
28
2
17
12
32
3
25
7
16
10
8
21
11
22
5
18
13
14
15
23
29
27

> <PUBCHEM_MMFF94_PARTIAL_CHARGES>
30
1 -0.19
10 0.01
11 0.14
12 0.05
13 -0.18
16 0.09
17 -0.11
18 -0.15
19 0.17
2 -0.19
20 0.05
21 0.19
22 -0.15
23 0.33
24 0.19
25 -0.15
26 0.19
28 0.15
3 -0.19
35 0.15
36 0.15
37 0.15
38 0.15
39 0.15
4 -0.28
5 0.33
6 -0.34
7 -0.34
8 -0.57
9 0.18

> <PUBCHEM_EFFECTIVE_ROTOR_COUNT>
3

> <PUBCHEM_PHARMACOPHORE_FEATURES>
7
3 5 6 10 cation
3 5 7 11 cation
3 9 14 15 hydrophobe
5 4 8 16 19 23 rings
5 5 6 7 10 11 rings
6 20 21 22 24 25 26 rings
6 5 11 12 13 17 18 rings

> <PUBCHEM_HEAVY_ATOM_COUNT>
26

> <PUBCHEM_ATOM_DEF_STEREO_COUNT>
0

> <PUBCHEM_ATOM_UDEF_STEREO_COUNT>
0

> <PUBCHEM_BOND_DEF_STEREO_COUNT>
0

> <PUBCHEM_BOND_UDEF_STEREO_COUNT>
0

> <PUBCHEM_ISOTOPIC_ATOM_COUNT>
0

> <PUBCHEM_COMPONENT_COUNT>
1

> <PUBCHEM_CACTVS_TAUTO_COUNT>
1

> <PUBCHEM_CONFORMER_ID>
009FD05B00000001

> <PUBCHEM_MMFF94_ENERGY>
52.68

> <PUBCHEM_FEATURE_SELFOVERLAP>
38.107

> <PUBCHEM_SHAPE_FINGERPRINT>
114674 6 16820823400142067299
11578080 2 17895458281261529932
11582403 64 16475666398152412008
12156800 1 16048370998331295181
12363563 72 18342180024277102023
12403259 327 17982999069318711864
12553582 1 18339377347605191491
12788726 201 18336844012875183705
13004483 165 18271514390558954853
13083527 12 17987502883124935660
13583140 156 17345463787650617102
13911987 19 17036725663835996077
14081887 123 18271521979686876776
14251757 17 16010964551360116310
14468879 13 16627968652645037544
14787075 74 17975429210997885428
21304303 282 17905300971987929101
21452121 199 18267590289083105069
21731516 1 18197521690421238821
23419403 2 17903594727198886212
23557571 272 17988652847770227212
23559900 14 17985556546444849988
23598288 3 17972917758746344729
23728640 28 18194419800631350057
238 59 15719960270769634714
46194498 28 14346662525358133902
463206 1 18117837918024990091
469060 322 16770657924605674796
5161694 15 14056721231867020470
613672 6 18271801384511138791

> <PUBCHEM_SHAPE_MULTIPOLES>
487.45
8.41
3.43
2.4
5.73
1.16
-0.61
-6.59
0.43
-3.95
1.24
1.49
-0.22
-2.31

> <PUBCHEM_SHAPE_SELFOVERLAP>
1087.693

> <PUBCHEM_SHAPE_VOLUME>
264.4

> <PUBCHEM_COORDINATE_TYPE>
2
5
10

$$$$
