49830925
  -OEChem-10052115183D

 32 33  0     1  0  0  0  0  0999 V2000
    3.3818    2.9464   -0.5116 I   0  0  0  0  0  0  0  0  0  0  0  0
   -2.5031    2.1117   -0.6717 O   0  0  0  0  0  0  0  0  0  0  0  0
   -4.2116    0.5320    1.1600 O   0  0  0  0  0  0  0  0  0  0  0  0
   -0.0107    0.6662    0.4945 N   0  0  0  0  0  0  0  0  0  0  0  0
    0.5426   -1.6798    0.5577 N   0  0  0  0  0  0  0  0  0  0  0  0
   -3.3850   -1.8765   -1.5271 N   0  0  0  0  0  0  0  0  0  0  0  0
    2.8790   -2.1194    0.0322 N   0  0  0  0  0  0  0  0  0  0  0  0
    4.4372   -0.4070   -0.4871 N   0  0  0  0  0  0  0  0  0  0  0  0
   -2.3841    0.7202   -0.3683 C   0  0  1  0  0  0  0  0  0  0  0  0
   -1.4744    0.5661    0.8579 C   0  0  0  0  0  0  0  0  0  0  0  0
   -3.7830    0.1176   -0.1414 C   0  0  1  0  0  0  0  0  0  0  0  0
    0.8577   -0.3859    0.3735 C   0  0  0  0  0  0  0  0  0  0  0  0
   -3.8171   -1.4142   -0.2092 C   0  0  0  0  0  0  0  0  0  0  0  0
    2.1039    0.1242    0.0310 C   0  0  0  0  0  0  0  0  0  0  0  0
    0.6523    1.8386    0.2368 C   0  0  0  0  0  0  0  0  0  0  0  0
    1.9651    1.5332   -0.0536 C   0  0  0  0  0  0  0  0  0  0  0  0
    3.1327   -0.8013   -0.1391 C   0  0  0  0  0  0  0  0  0  0  0  0
    1.6170   -2.4721    0.3655 C   0  0  0  0  0  0  0  0  0  0  0  0
   -1.9188    0.2680   -1.2502 H   0  0  0  0  0  0  0  0  0  0  0  0
   -1.5812   -0.4070    1.3460 H   0  0  0  0  0  0  0  0  0  0  0  0
   -1.6282    1.3568    1.6017 H   0  0  0  0  0  0  0  0  0  0  0  0
   -4.4956    0.5352   -0.8635 H   0  0  0  0  0  0  0  0  0  0  0  0
   -3.1820   -1.8560    0.5657 H   0  0  0  0  0  0  0  0  0  0  0  0
   -4.8351   -1.7673   -0.0073 H   0  0  0  0  0  0  0  0  0  0  0  0
    0.1337    2.7873    0.2855 H   0  0  0  0  0  0  0  0  0  0  0  0
   -2.8851    2.5593    0.1018 H   0  0  0  0  0  0  0  0  0  0  0  0
   -4.3119    1.4987    1.1444 H   0  0  0  0  0  0  0  0  0  0  0  0
   -3.4775   -2.8903   -1.5748 H   0  0  0  0  0  0  0  0  0  0  0  0
   -4.0054   -1.4987   -2.2421 H   0  0  0  0  0  0  0  0  0  0  0  0
    1.4466   -3.5354    0.4954 H   0  0  0  0  0  0  0  0  0  0  0  0
    5.1510   -1.1139   -0.6001 H   0  0  0  0  0  0  0  0  0  0  0  0
    4.6598    0.5695   -0.6228 H   0  0  0  0  0  0  0  0  0  0  0  0
  1 16  1  0  0  0  0
  2  9  1  0  0  0  0
  2 26  1  0  0  0  0
  3 11  1  0  0  0  0
  3 27  1  0  0  0  0
  4 10  1  0  0  0  0
  4 12  1  0  0  0  0
  4 15  1  0  0  0  0
  5 12  2  0  0  0  0
  5 18  1  0  0  0  0
  6 13  1  0  0  0  0
  6 28  1  0  0  0  0
  6 29  1  0  0  0  0
  7 17  1  0  0  0  0
  7 18  2  0  0  0  0
  8 17  1  0  0  0  0
  8 31  1  0  0  0  0
  8 32  1  0  0  0  0
  9 10  1  0  0  0  0
  9 11  1  0  0  0  0
  9 19  1  0  0  0  0
 10 20  1  0  0  0  0
 10 21  1  0  0  0  0
 11 13  1  0  0  0  0
 11 22  1  0  0  0  0
 12 14  1  0  0  0  0
 13 23  1  0  0  0  0
 13 24  1  0  0  0  0
 14 16  1  0  0  0  0
 14 17  2  0  0  0  0
 15 16  2  0  0  0  0
 15 25  1  0  0  0  0
 18 30  1  0  0  0  0
M  END
> <PUBCHEM_COMPOUND_CID>
49830925

> <PUBCHEM_CONFORMER_RMSD>
0.6

> <PUBCHEM_CONFORMER_DIVERSEORDER>
3
198
170
163
78
32
184
85
109
119
131
73
174
59
162
169
128
72
44
104
193
107
190
129
168
33
90
181
122
195
146
188
176
177
137
83
57
164
191
135
43
7
26
187
157
12
185
93
167
77
9
160
71
124
194
37
199
24
133
196
189
11
16
178
103
148
134
92
28
111
125
161
147
76
91
45
84
97
126
5
150
114
140
115
136
98
69
68
105
132
171
120
20
51
47
34
17
192
118
35
166
96
99
117
179
144
8
55
110
41
67
112
87
63
18
89
19
49
158
101
42
64
152
127
182
173
113
143
61
172
154
38
149
14
15
54
62
130
142
36
56
40
116
183
88
13
30
123
66
156
4
102
180
145
74
1
80
186
23
29
65
21
27
82
175
53
201
108
31
81
2
60
121
79
100
48
10
22
155
46
159
106
70
94
50
75
6
25
52
165
95
197
138
153
58
200
151
39
86
141
139

> <PUBCHEM_MMFF94_PARTIAL_CHARGES>
25
1 -0.03
10 0.26
11 0.28
12 0.11
13 0.27
15 -0.3
16 0.03
17 0.41
18 0.47
2 -0.68
25 0.15
26 0.4
27 0.4
28 0.36
29 0.36
3 -0.68
30 0.15
31 0.4
32 0.4
4 0.05
5 -0.57
6 -0.99
7 -0.62
8 -0.9
9 0.28

> <PUBCHEM_EFFECTIVE_ROTOR_COUNT>
4

> <PUBCHEM_PHARMACOPHORE_FEATURES>
13
1 1 hydrophobe
1 2 acceptor
1 2 donor
1 3 acceptor
1 3 donor
1 6 cation
1 6 donor
1 8 cation
1 8 donor
3 4 5 12 cation
3 5 7 18 cation
5 4 12 14 15 16 rings
6 5 7 12 14 17 18 rings

> <PUBCHEM_HEAVY_ATOM_COUNT>
18

> <PUBCHEM_ATOM_DEF_STEREO_COUNT>
0

> <PUBCHEM_ATOM_UDEF_STEREO_COUNT>
2

> <PUBCHEM_BOND_DEF_STEREO_COUNT>
0

> <PUBCHEM_BOND_UDEF_STEREO_COUNT>
0

> <PUBCHEM_ISOTOPIC_ATOM_COUNT>
0

> <PUBCHEM_COMPONENT_COUNT>
1

> <PUBCHEM_CACTVS_TAUTO_COUNT>
4

> <PUBCHEM_CONFORMER_ID>
02F85C0D00000003

> <PUBCHEM_MMFF94_ENERGY>
32.4805

> <PUBCHEM_FEATURE_SELFOVERLAP>
66.251

> <PUBCHEM_SHAPE_FINGERPRINT>
10616163 171 18343584045013074495
11578080 2 17773007809847966537
11759241 127 17969496181344496333
11806522 49 18413107256100573488
12553582 1 18339919312406361811
13380535 76 18191585470250850208
13583140 156 16299495266227294416
13760787 19 18201726201553507381
14576447 43 18341325660513403470
15238133 3 16988297373874460281
15375462 189 18411703145271066987
16945 1 18336841788324561512
18186145 218 18411983563532880668
19422 9 18202003265540509997
20281475 54 18343581871743525417
20645477 70 18336256895219616605
21524375 3 17972031702714134328
21634736 98 18413106169199761974
221490 88 18336272318004409226
22182313 1 17975440193334151898
2255824 54 18410014342686818690
23402539 116 16878505627218429316
23402655 69 18335983060715561781
23419403 2 14422574925748343144
23559900 14 18339351990207959848
23598291 2 18272933838632676053
2748010 2 18119833532045173096
2871803 45 18336815503082687399
58051976 100 18410575046636302853
58051976 378 18265894846606232564
7364860 26 18410576193197632296
84936 182 18200878486478519424
9709674 26 18335707139021042043

> <PUBCHEM_SHAPE_MULTIPOLES>
345.72
8
3
0.92
4.66
0.08
-0.1
-0.67
-1.47
-2.55
-0.3
0.62
0.01
-0.78

> <PUBCHEM_SHAPE_SELFOVERLAP>
706.554

> <PUBCHEM_SHAPE_VOLUME>
206.4

> <PUBCHEM_COORDINATE_TYPE>
2
5
10

$$$$
