49830460
  -OEChem-10052120443D

 48 52  0     0  0  0  0  0  0999 V2000
    2.5568    4.4627    0.4860 F   0  0  0  0  0  0  0  0  0  0  0  0
    5.4851   -0.6395    0.3075 O   0  0  0  0  0  0  0  0  0  0  0  0
   -3.8812   -0.6881   -0.9467 N   0  0  0  0  0  0  0  0  0  0  0  0
    2.8313   -3.9424    0.4807 N   0  0  0  0  0  0  0  0  0  0  0  0
    3.6144   -2.8519    0.4344 N   0  0  0  0  0  0  0  0  0  0  0  0
    3.1415   -0.5392    0.1068 N   0  0  0  0  0  0  0  0  0  0  0  0
   -3.4427   -2.4616    0.1888 N   0  0  0  0  0  0  0  0  0  0  0  0
   -4.4301   -1.6671   -0.2095 N   0  0  0  0  0  0  0  0  0  0  0  0
    1.4124   -2.3075    0.1306 C   0  0  0  0  0  0  0  0  0  0  0  0
    1.4985   -3.6842    0.3049 C   0  0  0  0  0  0  0  0  0  0  0  0
   -0.9763   -2.5436   -0.1000 C   0  0  0  0  0  0  0  0  0  0  0  0
    0.1544   -1.7175   -0.0763 C   0  0  0  0  0  0  0  0  0  0  0  0
    2.7477   -1.8591    0.2218 C   0  0  0  0  0  0  0  0  0  0  0  0
   -2.2729   -1.9615   -0.3119 C   0  0  0  0  0  0  0  0  0  0  0  0
    0.3842   -4.5258    0.2851 C   0  0  0  0  0  0  0  0  0  0  0  0
   -0.8611   -3.9236    0.0778 C   0  0  0  0  0  0  0  0  0  0  0  0
   -4.7027    0.3430   -1.5278 C   0  0  0  0  0  0  0  0  0  0  0  0
   -2.5308   -0.8278   -1.0409 C   0  0  0  0  0  0  0  0  0  0  0  0
   -5.1234    1.4009   -0.5381 C   0  0  0  0  0  0  0  0  0  0  0  0
    4.4457   -0.0072    0.1531 C   0  0  0  0  0  0  0  0  0  0  0  0
   -6.1594    1.1435    0.3596 C   0  0  0  0  0  0  0  0  0  0  0  0
   -4.4764    2.6365   -0.5209 C   0  0  0  0  0  0  0  0  0  0  0  0
    4.5512    1.4640   -0.0309 C   0  0  0  0  0  0  0  0  0  0  0  0
   -6.5484    2.1217    1.2749 C   0  0  0  0  0  0  0  0  0  0  0  0
   -4.8654    3.6148    0.3943 C   0  0  0  0  0  0  0  0  0  0  0  0
   -5.9013    3.3573    1.2923 C   0  0  0  0  0  0  0  0  0  0  0  0
    3.4831    2.2893    0.3206 C   0  0  0  0  0  0  0  0  0  0  0  0
    5.7183    2.0193   -0.5561 C   0  0  0  0  0  0  0  0  0  0  0  0
    3.5817    3.6699    0.1473 C   0  0  0  0  0  0  0  0  0  0  0  0
    5.8169    3.3998   -0.7297 C   0  0  0  0  0  0  0  0  0  0  0  0
    4.7488    4.2252   -0.3779 C   0  0  0  0  0  0  0  0  0  0  0  0
    0.0830   -0.6410   -0.2019 H   0  0  0  0  0  0  0  0  0  0  0  0
    0.4759   -5.5974    0.4226 H   0  0  0  0  0  0  0  0  0  0  0  0
   -1.7413   -4.5636    0.0548 H   0  0  0  0  0  0  0  0  0  0  0  0
   -5.5850   -0.1381   -1.9679 H   0  0  0  0  0  0  0  0  0  0  0  0
   -4.1467    0.7888   -2.3615 H   0  0  0  0  0  0  0  0  0  0  0  0
   -1.9107   -0.1386   -1.5978 H   0  0  0  0  0  0  0  0  0  0  0  0
    3.2716   -4.8406    0.6363 H   0  0  0  0  0  0  0  0  0  0  0  0
    2.3704    0.0945   -0.0812 H   0  0  0  0  0  0  0  0  0  0  0  0
   -6.6762    0.1876    0.3540 H   0  0  0  0  0  0  0  0  0  0  0  0
   -3.6664    2.8493   -1.2134 H   0  0  0  0  0  0  0  0  0  0  0  0
   -7.3558    1.9218    1.9733 H   0  0  0  0  0  0  0  0  0  0  0  0
   -4.3614    4.5768    0.4082 H   0  0  0  0  0  0  0  0  0  0  0  0
   -6.2042    4.1189    2.0049 H   0  0  0  0  0  0  0  0  0  0  0  0
    2.5696    1.9049    0.7638 H   0  0  0  0  0  0  0  0  0  0  0  0
    6.5600    1.3939   -0.8415 H   0  0  0  0  0  0  0  0  0  0  0  0
    6.7248    3.8323   -1.1398 H   0  0  0  0  0  0  0  0  0  0  0  0
    4.8254    5.3000   -0.5129 H   0  0  0  0  0  0  0  0  0  0  0  0
  1 29  1  0  0  0  0
  2 20  2  0  0  0  0
  3  8  1  0  0  0  0
  3 17  1  0  0  0  0
  3 18  1  0  0  0  0
  4  5  1  0  0  0  0
  4 10  1  0  0  0  0
  4 38  1  0  0  0  0
  5 13  2  0  0  0  0
  6 13  1  0  0  0  0
  6 20  1  0  0  0  0
  6 39  1  0  0  0  0
  7  8  2  0  0  0  0
  7 14  1  0  0  0  0
  9 10  2  0  0  0  0
  9 12  1  0  0  0  0
  9 13  1  0  0  0  0
 10 15  1  0  0  0  0
 11 12  2  0  0  0  0
 11 14  1  0  0  0  0
 11 16  1  0  0  0  0
 12 32  1  0  0  0  0
 14 18  2  0  0  0  0
 15 16  2  0  0  0  0
 15 33  1  0  0  0  0
 16 34  1  0  0  0  0
 17 19  1  0  0  0  0
 17 35  1  0  0  0  0
 17 36  1  0  0  0  0
 18 37  1  0  0  0  0
 19 21  2  0  0  0  0
 19 22  1  0  0  0  0
 20 23  1  0  0  0  0
 21 24  1  0  0  0  0
 21 40  1  0  0  0  0
 22 25  2  0  0  0  0
 22 41  1  0  0  0  0
 23 27  2  0  0  0  0
 23 28  1  0  0  0  0
 24 26  2  0  0  0  0
 24 42  1  0  0  0  0
 25 26  1  0  0  0  0
 25 43  1  0  0  0  0
 26 44  1  0  0  0  0
 27 29  1  0  0  0  0
 27 45  1  0  0  0  0
 28 30  2  0  0  0  0
 28 46  1  0  0  0  0
 29 31  2  0  0  0  0
 30 31  1  0  0  0  0
 30 47  1  0  0  0  0
 31 48  1  0  0  0  0
M  END
> <PUBCHEM_COMPOUND_CID>
49830460

> <PUBCHEM_CONFORMER_RMSD>
0.8

> <PUBCHEM_CONFORMER_DIVERSEORDER>
1
240
216
193
271
144
138
169
284
139
322
131
203
107
279
241
153
179
119
312
190
199
330
205
213
206
196
141
283
54
326
233
134
204
42
235
182
122
264
309
56
292
156
266
155
94
160
129
227
274
188
19
232
121
61
92
208
148
175
323
109
55
143
209
177
242
300
210
27
151
173
270
59
304
168
321
22
253
239
228
170
104
142
250
298
150
79
135
212
84
69
251
133
174
207
128
183
286
130
202
278
265
319
62
221
329
223
132
67
180
40
93
222
281
178
172
211
21
60
117
189
308
237
125
263
136
57
215
277
187
123
87
200
159
327
100
65
76
303
257
77
72
165
236
97
185
35
328
161
158
195
115
258
316
176
91
247
231
262
313
68
89
75
111
17
194
81
73
184
140
289
245
287
6
219
51
13
66
74
314
296
106
230
260
101
234
220
15
248
90
114
317
226
280
3
147
197
41
52
127
112
218
294
229
2
272
78
273
64
267
311
37
285
269
291
45
116
268
293
103
33
325
36
217
255
9
58
30
297
154
162
118
145
318
102
246
324
164
86
49
44
244
7
252
34
225
63
192
301
12
256
137
299
243
98
124
126
238
157
32
276
28
254
310
38
26
186
88
275
95
166
96
305
11
181
53
146
315
295
198
201
23
4
80
99
249
82
306
171
108
47
16
290
320
191
71
152
70
282
50
48
261
259
5
288
302
83
110
20
43
224
163
18
14
8
167
24
149
25
113
105
307
46
10
214
120
85
31
39
29

> <PUBCHEM_MMFF94_PARTIAL_CHARGES>
45
1 -0.19
10 -0.15
11 0.05
12 -0.15
13 0.35
14 0.17
15 -0.15
16 -0.15
17 0.4
18 -0.3
19 -0.14
2 -0.57
20 0.54
21 -0.15
22 -0.15
23 0.09
24 -0.15
25 -0.15
26 -0.15
27 -0.15
28 -0.15
29 0.19
3 0.31
30 -0.15
31 -0.15
32 0.15
33 0.15
34 0.15
37 0.15
38 0.27
39 0.37
4 0.3
40 0.15
41 0.15
42 0.15
43 0.15
44 0.15
45 0.15
46 0.15
47 0.15
48 0.15
5 -0.71
6 -0.49
7 -0.23
8 -0.42

> <PUBCHEM_EFFECTIVE_ROTOR_COUNT>
6

> <PUBCHEM_PHARMACOPHORE_FEATURES>
8
1 2 acceptor
1 4 donor
1 6 donor
5 3 7 8 14 18 rings
5 4 5 9 10 13 rings
6 19 21 22 24 25 26 rings
6 23 27 28 29 30 31 rings
6 9 10 11 12 15 16 rings

> <PUBCHEM_HEAVY_ATOM_COUNT>
31

> <PUBCHEM_ATOM_DEF_STEREO_COUNT>
0

> <PUBCHEM_ATOM_UDEF_STEREO_COUNT>
0

> <PUBCHEM_BOND_DEF_STEREO_COUNT>
0

> <PUBCHEM_BOND_UDEF_STEREO_COUNT>
0

> <PUBCHEM_ISOTOPIC_ATOM_COUNT>
0

> <PUBCHEM_COMPONENT_COUNT>
1

> <PUBCHEM_CACTVS_TAUTO_COUNT>
24

> <PUBCHEM_CONFORMER_ID>
02F85A3C00000001

> <PUBCHEM_MMFF94_ENERGY>
71.7478

> <PUBCHEM_FEATURE_SELFOVERLAP>
40.69

> <PUBCHEM_SHAPE_FINGERPRINT>
100830 2 18411989056838867465
10439779 11 18194390324677590176
10917259 69 18337957892107970820
11059048 146 18339639052636708353
11070050 100 16805888377055852027
11101153 10 18413100668274901871
11479125 193 18410018753529107569
11828042 163 18341061731649222236
11973864 155 18048622569850155440
1200032 147 18113905983387517896
12107183 9 18189312711598193162
12925494 130 18409443717848632321
12975358 362 16983520958474010281
13398642 44 18187940490262601141
13590594 115 17401767419555438683
13885169 86 18340772546688899385
13944108 23 18339083670995671220
14251764 75 18411141329141330845
14347329 18 18339635749854149232
14429114 114 18339919441044650473
14664723 55 18042975457303337244
14790565 3 18410574015226778231
14849402 71 18264770956739023826
15081414 286 17979631234890538959
15082195 135 18267562707272486031
15274700 147 15804703162217872252
15320291 9 17546715414833373653
15320295 198 17756708529883342917
15320467 1 18049721016373112092
15351339 4 18341323495976519769
16067689 134 18197511635613486460
16112460 7 18412267224590390600
16708801 149 18266439048821639681
16728433 281 17974019641803477404
16760501 71 18338238150927655521
16992779 147 18267034851454285369
17627616 140 18412262814017686849
19302320 297 18265896852223922467
20691028 202 18199182898368189457
22122407 14 18410016532909455227
245318 6 18187094978468178269
4173938 77 18268160751097571637
437795 171 18261948544782469053
437795 96 17753604642828439317
508180 173 18341342136899014178
5104073 3 18113898213465385715
5223283 242 17627819434030364942
53794403 172 18338803312219691030
550186 72 18050003591431091311
57724786 102 18340202973569217367
5951187 136 18200324212258374206
6058803 2 18268970056439976999
7970288 3 8467473181795434950

> <PUBCHEM_SHAPE_MULTIPOLES>
594.94
16.91
7.65
0.95
9.01
0.11
0.07
21.92
-0.83
-4.98
-1.16
1.15
0.38
-2.58

> <PUBCHEM_SHAPE_SELFOVERLAP>
1330.404

> <PUBCHEM_SHAPE_VOLUME>
315.8

> <PUBCHEM_COORDINATE_TYPE>
2
5
10

$$$$
