49830938
  -OEChem-10052115183D

 28 30  0     0  0  0  0  0  0999 V2000
   -2.5578    2.1877    0.0001 N   0  0  0  0  0  0  0  0  0  0  0  0
   -3.4258    1.1543   -0.0004 N   0  0  0  0  0  0  0  0  0  0  0  0
   -3.0029   -1.2340   -0.0002 N   0  0  0  0  0  0  0  0  0  0  0  0
    1.2117   -3.6212   -0.0006 N   0  0  0  0  0  0  0  0  0  0  0  0
   -1.2547    0.4558    0.0003 C   0  0  0  0  0  0  0  0  0  0  0  0
   -0.1425   -0.3723    0.0007 C   0  0  0  0  0  0  0  0  0  0  0  0
   -1.2389    1.8233    0.0004 C   0  0  0  0  0  0  0  0  0  0  0  0
   -2.6320    0.0775   -0.0001 C   0  0  0  0  0  0  0  0  0  0  0  0
    1.2210    0.0904    0.0005 C   0  0  0  0  0  0  0  0  0  0  0  0
   -0.5444   -1.7123    0.0005 C   0  0  0  0  0  0  0  0  0  0  0  0
   -0.1747    2.8438   -0.0007 C   0  0  0  0  0  0  0  0  0  0  0  0
   -1.9148   -2.0690    0.0002 C   0  0  0  0  0  0  0  0  0  0  0  0
    1.8810    0.3147   -1.2077 C   0  0  0  0  0  0  0  0  0  0  0  0
    1.8818    0.3147    1.2082 C   0  0  0  0  0  0  0  0  0  0  0  0
    3.2019    0.7632   -1.2082 C   0  0  0  0  0  0  0  0  0  0  0  0
    3.2025    0.7631    1.2079 C   0  0  0  0  0  0  0  0  0  0  0  0
    3.8626    0.9873   -0.0004 C   0  0  0  0  0  0  0  0  0  0  0  0
    0.4260   -2.7671   -0.0002 C   0  0  0  0  0  0  0  0  0  0  0  0
   -2.9399    3.1252   -0.0002 H   0  0  0  0  0  0  0  0  0  0  0  0
    0.4507    2.7661   -0.8940 H   0  0  0  0  0  0  0  0  0  0  0  0
   -0.5968    3.8555   -0.0006 H   0  0  0  0  0  0  0  0  0  0  0  0
    0.4521    2.7666    0.8918 H   0  0  0  0  0  0  0  0  0  0  0  0
   -2.1965   -3.1220   -0.0001 H   0  0  0  0  0  0  0  0  0  0  0  0
    1.3804    0.1454   -2.1582 H   0  0  0  0  0  0  0  0  0  0  0  0
    1.3818    0.1453    2.1589 H   0  0  0  0  0  0  0  0  0  0  0  0
    3.7157    0.9381   -2.1489 H   0  0  0  0  0  0  0  0  0  0  0  0
    3.7170    0.9380    2.1482 H   0  0  0  0  0  0  0  0  0  0  0  0
    4.8909    1.3367   -0.0007 H   0  0  0  0  0  0  0  0  0  0  0  0
  1  2  1  0  0  0  0
  1  7  1  0  0  0  0
  1 19  1  0  0  0  0
  2  8  2  0  0  0  0
  3  8  1  0  0  0  0
  3 12  2  0  0  0  0
  4 18  3  0  0  0  0
  5  6  1  0  0  0  0
  5  7  2  0  0  0  0
  5  8  1  0  0  0  0
  6  9  1  0  0  0  0
  6 10  2  0  0  0  0
  7 11  1  0  0  0  0
  9 13  2  0  0  0  0
  9 14  1  0  0  0  0
 10 12  1  0  0  0  0
 10 18  1  0  0  0  0
 11 20  1  0  0  0  0
 11 21  1  0  0  0  0
 11 22  1  0  0  0  0
 12 23  1  0  0  0  0
 13 15  1  0  0  0  0
 13 24  1  0  0  0  0
 14 16  2  0  0  0  0
 14 25  1  0  0  0  0
 15 17  2  0  0  0  0
 15 26  1  0  0  0  0
 16 17  1  0  0  0  0
 16 27  1  0  0  0  0
 17 28  1  0  0  0  0
M  END
> <PUBCHEM_COMPOUND_CID>
49830938

> <PUBCHEM_CONFORMER_RMSD>
0.6

> <PUBCHEM_CONFORMER_DIVERSEORDER>
1

> <PUBCHEM_MMFF94_PARTIAL_CHARGES>
22
1 0.3
10 0.07
11 0.18
12 0.16
13 -0.15
14 -0.15
15 -0.15
16 -0.15
17 -0.15
18 0.48
19 0.27
2 -0.71
23 0.15
24 0.15
25 0.15
26 0.15
27 0.15
28 0.15
3 -0.57
4 -0.56
7 -0.33
8 0.54

> <PUBCHEM_EFFECTIVE_ROTOR_COUNT>
1

> <PUBCHEM_PHARMACOPHORE_FEATURES>
7
1 1 donor
1 3 acceptor
1 4 acceptor
3 2 3 8 cation
5 1 2 5 7 8 rings
6 3 5 6 8 10 12 rings
6 9 13 14 15 16 17 rings

> <PUBCHEM_HEAVY_ATOM_COUNT>
18

> <PUBCHEM_ATOM_DEF_STEREO_COUNT>
0

> <PUBCHEM_ATOM_UDEF_STEREO_COUNT>
0

> <PUBCHEM_BOND_DEF_STEREO_COUNT>
0

> <PUBCHEM_BOND_UDEF_STEREO_COUNT>
0

> <PUBCHEM_ISOTOPIC_ATOM_COUNT>
0

> <PUBCHEM_COMPONENT_COUNT>
1

> <PUBCHEM_CACTVS_TAUTO_COUNT>
3

> <PUBCHEM_CONFORMER_ID>
02F85C1A00000001

> <PUBCHEM_MMFF94_ENERGY>
50.4605

> <PUBCHEM_FEATURE_SELFOVERLAP>
35.671

> <PUBCHEM_SHAPE_FINGERPRINT>
10967382 1 18338516326889532293
11132069 177 18410009948714131529
11578080 2 12205859260948065900
11640471 11 17387145367089715372
11680986 33 18192714436564005491
11725454 13 16770941577283506666
12173636 292 18410570729788189988
12236239 1 17676482895557843752
12553582 1 17689724485747936966
13027679 85 16970824789446575556
13140716 1 18122067499160050267
13538477 17 18114457980662494776
14614273 12 18261103050536361541
14790565 3 18265915712037722561
15309172 13 18410865381571265617
15375462 175 18338240474019847962
16752209 62 18337104691208705847
16945 1 18338516451659991623
18186145 218 17988374710267760304
193761 8 18194682562314323399
19868273 325 18336828718090402037
20028762 73 17624709238228048743
20510252 161 18270686483777715912
20739085 24 17833579815839554353
20905425 154 18198628735121088822
21501502 16 18268426833080408787
22802520 49 18058747822369083852
23184049 29 17617373326283893222
2334 1 18338517431039103183
23366157 5 17970351420991956922
23402539 116 18270671099431500622
23419403 2 16685931465698038802
23557571 272 18055926630710767364
23559900 14 18272094890413438124
23598294 1 18263638623155138976
2748010 2 18265621970517655479
350125 39 17762064241941427649
43471831 8 18408318882561273618
589210 1 18123467181097845027
7364860 26 18125156026752896834
77492 1 17676201424802214892
81228 2 17910109453778566770
90525 40 18334013925579227382

> <PUBCHEM_SHAPE_MULTIPOLES>
350.51
5.29
3.21
0.94
1.71
1.85
0
-1.81
0
-1.17
0
0.88
-0.12
0

> <PUBCHEM_SHAPE_SELFOVERLAP>
785.255

> <PUBCHEM_SHAPE_VOLUME>
181.5

> <PUBCHEM_COORDINATE_TYPE>
2
5
10

$$$$
