20744829
  -OEChem-10052115183D

 49 52  0     1  0  0  0  0  0999 V2000
   -1.1579    2.0163   -2.6366 Cl  0  0  0  0  0  0  0  0  0  0  0  0
   -2.3558   -1.0889    0.6949 O   0  0  0  0  0  0  0  0  0  0  0  0
   -5.9130   -1.8087    1.2238 N   0  0  0  0  0  0  0  0  0  0  0  0
    5.6910    1.7974    0.5056 N   0  0  0  0  0  0  0  0  0  0  0  0
    6.1499    0.5323    0.4406 N   0  0  0  0  0  0  0  0  0  0  0  0
   -0.2656   -3.4661   -1.1116 N   0  0  0  0  0  0  0  0  0  0  0  0
   -4.7527   -0.9254    1.0716 C   0  0  2  0  0  0  0  0  0  0  0  0
   -5.1729    0.2783    0.2019 C   0  0  0  0  0  0  0  0  0  0  0  0
   -3.6060   -1.7415    0.4630 C   0  0  0  0  0  0  0  0  0  0  0  0
   -4.0910    1.3096   -0.0102 C   0  0  0  0  0  0  0  0  0  0  0  0
    3.8892    0.6381    0.2443 C   0  0  0  0  0  0  0  0  0  0  0  0
    2.4530   -1.1428   -0.0360 C   0  0  0  0  0  0  0  0  0  0  0  0
    5.0483   -0.2214    0.2770 C   0  0  0  0  0  0  0  0  0  0  0  0
    2.5625    0.2560    0.0918 C   0  0  0  0  0  0  0  0  0  0  0  0
    1.1285   -1.7114   -0.2041 C   0  0  0  0  0  0  0  0  0  0  0  0
    4.3369    1.9202    0.3931 C   0  0  0  0  0  0  0  0  0  0  0  0
   -1.2473   -1.6654    0.1686 C   0  0  0  0  0  0  0  0  0  0  0  0
    3.5698   -2.0364   -0.0099 C   0  0  0  0  0  0  0  0  0  0  0  0
    0.0092   -1.0968    0.3463 C   0  0  0  0  0  0  0  0  0  0  0  0
    4.9086   -1.6155    0.1470 C   0  0  0  0  0  0  0  0  0  0  0  0
   -3.2251    1.1987   -1.0981 C   0  0  0  0  0  0  0  0  0  0  0  0
   -3.9575    2.3734    0.8819 C   0  0  0  0  0  0  0  0  0  0  0  0
    0.9391   -2.8840   -0.9179 C   0  0  0  0  0  0  0  0  0  0  0  0
    3.6653    3.2297    0.4440 C   0  0  0  0  0  0  0  0  0  0  0  0
   -1.3302   -2.8400   -0.5616 C   0  0  0  0  0  0  0  0  0  0  0  0
   -2.2258    2.1519   -1.2940 C   0  0  0  0  0  0  0  0  0  0  0  0
   -2.9581    3.3266    0.6863 C   0  0  0  0  0  0  0  0  0  0  0  0
   -2.0923    3.2158   -0.4017 C   0  0  0  0  0  0  0  0  0  0  0  0
   -4.4511   -0.5603    2.0615 H   0  0  0  0  0  0  0  0  0  0  0  0
   -6.0407    0.7767    0.6565 H   0  0  0  0  0  0  0  0  0  0  0  0
   -5.5263   -0.0697   -0.7792 H   0  0  0  0  0  0  0  0  0  0  0  0
   -3.5710   -2.7242    0.9530 H   0  0  0  0  0  0  0  0  0  0  0  0
   -3.7926   -1.8728   -0.6111 H   0  0  0  0  0  0  0  0  0  0  0  0
    1.7410    0.9570    0.0498 H   0  0  0  0  0  0  0  0  0  0  0  0
   -5.6822   -2.5736    1.8568 H   0  0  0  0  0  0  0  0  0  0  0  0
   -6.6777   -1.2971    1.6628 H   0  0  0  0  0  0  0  0  0  0  0  0
    3.4239   -3.1142   -0.0766 H   0  0  0  0  0  0  0  0  0  0  0  0
    0.0774   -0.1904    0.9420 H   0  0  0  0  0  0  0  0  0  0  0  0
    5.7390   -2.3087    0.1723 H   0  0  0  0  0  0  0  0  0  0  0  0
   -3.3328    0.3730   -1.7976 H   0  0  0  0  0  0  0  0  0  0  0  0
   -4.6245    2.4690    1.7346 H   0  0  0  0  0  0  0  0  0  0  0  0
    6.3693    2.5384    0.6299 H   0  0  0  0  0  0  0  0  0  0  0  0
    1.7462   -3.4145   -1.4129 H   0  0  0  0  0  0  0  0  0  0  0  0
    2.9587    3.2665    1.2794 H   0  0  0  0  0  0  0  0  0  0  0  0
    4.3791    4.0499    0.5735 H   0  0  0  0  0  0  0  0  0  0  0  0
    3.1101    3.4128   -0.4816 H   0  0  0  0  0  0  0  0  0  0  0  0
   -2.2536   -3.3723   -0.7565 H   0  0  0  0  0  0  0  0  0  0  0  0
   -2.8536    4.1543    1.3816 H   0  0  0  0  0  0  0  0  0  0  0  0
   -1.3177    3.9655   -0.5413 H   0  0  0  0  0  0  0  0  0  0  0  0
  1 26  1  0  0  0  0
  2  9  1  0  0  0  0
  2 17  1  0  0  0  0
  3  7  1  0  0  0  0
  3 35  1  0  0  0  0
  3 36  1  0  0  0  0
  4  5  1  0  0  0  0
  4 16  1  0  0  0  0
  4 42  1  0  0  0  0
  5 13  2  0  0  0  0
  6 23  2  0  0  0  0
  6 25  1  0  0  0  0
  7  8  1  0  0  0  0
  7  9  1  0  0  0  0
  7 29  1  0  0  0  0
  8 10  1  0  0  0  0
  8 30  1  0  0  0  0
  8 31  1  0  0  0  0
  9 32  1  0  0  0  0
  9 33  1  0  0  0  0
 10 21  2  0  0  0  0
 10 22  1  0  0  0  0
 11 13  1  0  0  0  0
 11 14  1  0  0  0  0
 11 16  2  0  0  0  0
 12 14  2  0  0  0  0
 12 15  1  0  0  0  0
 12 18  1  0  0  0  0
 13 20  1  0  0  0  0
 14 34  1  0  0  0  0
 15 19  2  0  0  0  0
 15 23  1  0  0  0  0
 16 24  1  0  0  0  0
 17 19  1  0  0  0  0
 17 25  2  0  0  0  0
 18 20  2  0  0  0  0
 18 37  1  0  0  0  0
 19 38  1  0  0  0  0
 20 39  1  0  0  0  0
 21 26  1  0  0  0  0
 21 40  1  0  0  0  0
 22 27  2  0  0  0  0
 22 41  1  0  0  0  0
 23 43  1  0  0  0  0
 24 44  1  0  0  0  0
 24 45  1  0  0  0  0
 24 46  1  0  0  0  0
 25 47  1  0  0  0  0
 26 28  2  0  0  0  0
 27 28  1  0  0  0  0
 27 48  1  0  0  0  0
 28 49  1  0  0  0  0
M  END
> <PUBCHEM_COMPOUND_CID>
20744829

> <PUBCHEM_CONFORMER_RMSD>
1.2

> <PUBCHEM_CONFORMER_DIVERSEORDER>
1
14
54
168
175
165
47
68
148
142
32
108
160
30
20
131
170
92
144
50
84
111
163
162
81
38
180
149
189
117
157
77
96
21
152
193
46
22
52
31
8
42
169
34
187
72
183
88
134
67
136
60
48
123
3
139
80
186
12
87
140
125
61
115
105
53
113
17
45
129
171
145
107
76
35
124
174
89
112
182
85
116
151
130
41
13
73
132
156
98
26
177
143
39
120
24
6
103
37
137
55
62
90
155
75
19
172
128
176
4
95
83
110
167
79
106
56
158
135
82
43
29
36
69
119
194
133
74
104
159
93
153
5
28
71
65
178
7
99
97
181
78
58
173
127
190
109
66
166
138
11
49
25
141
147
15
146
33
70
188
121
59
64
118
51
126
192
63
184
114
100
185
191
16
27
10
122
154
18
179
150
57
102
23
164
2
40
86
9
161
94
91
44
101

> <PUBCHEM_MMFF94_PARTIAL_CHARGES>
38
1 -0.18
10 -0.14
13 0.29
14 -0.15
16 -0.33
17 0.08
18 -0.15
19 -0.15
2 -0.36
20 -0.15
21 -0.15
22 -0.15
23 0.16
24 0.18
25 0.16
26 0.18
27 -0.15
28 -0.15
3 -0.99
34 0.15
35 0.36
36 0.36
37 0.15
38 0.15
39 0.15
4 0.3
40 0.15
41 0.15
42 0.27
43 0.15
47 0.15
48 0.15
49 0.15
5 -0.71
6 -0.62
7 0.27
8 0.14
9 0.28

> <PUBCHEM_EFFECTIVE_ROTOR_COUNT>
6

> <PUBCHEM_PHARMACOPHORE_FEATURES>
10
1 2 acceptor
1 3 cation
1 3 donor
1 4 donor
1 5 acceptor
1 6 acceptor
5 4 5 11 13 16 rings
6 10 21 22 26 27 28 rings
6 11 12 13 14 18 20 rings
6 6 15 17 19 23 25 rings

> <PUBCHEM_HEAVY_ATOM_COUNT>
28

> <PUBCHEM_ATOM_DEF_STEREO_COUNT>
0

> <PUBCHEM_ATOM_UDEF_STEREO_COUNT>
1

> <PUBCHEM_BOND_DEF_STEREO_COUNT>
0

> <PUBCHEM_BOND_UDEF_STEREO_COUNT>
0

> <PUBCHEM_ISOTOPIC_ATOM_COUNT>
0

> <PUBCHEM_COMPONENT_COUNT>
1

> <PUBCHEM_CACTVS_TAUTO_COUNT>
2

> <PUBCHEM_CONFORMER_ID>
013C8A7D00000001

> <PUBCHEM_MMFF94_ENERGY>
83.1691

> <PUBCHEM_FEATURE_SELFOVERLAP>
50.879

> <PUBCHEM_SHAPE_FINGERPRINT>
10256941 240 16881580866567786677
10670039 82 18261973894037087548
11595378 159 17458613502308834656
12107183 9 18338505341139364330
12128747 34 17459751406971627586
12422481 6 18187375328548487501
12596602 18 17167859789857603746
12925494 130 18196370321522608513
12978246 48 18410854382376733488
13402501 40 18410573989641922289
13561361 72 18335413595434253432
14251764 38 18340206276108436904
14466204 15 18193267504098476314
15320467 1 18196652011005110280
15419008 145 18262506028001034640
15840311 113 17693388746689254785
15961568 22 18335143111067577365
18393751 57 18410019840620316411
19611394 137 17900270998596914115
20764821 26 17981871253603792840
21033648 144 18189044309388620932
21033648 29 18201427078418735802
21315764 268 18408318865528636078
21623110 236 18410298004082055705
23559900 14 17908987608410866467
25019877 29 17774451602233872407
350125 39 18410295826422431376
373842 8 18117003384424794865
392239 28 18341339941822955777
445580 44 16443344230786625381
469060 322 16660360381226186677
474144 1 17533799348651456085
5081480 168 16986059811745284654
5104073 3 18261955141761707570
6287921 2 18193010226745757445
7399639 24 18340499867927212215

> <PUBCHEM_SHAPE_MULTIPOLES>
552.3
13.14
4.48
1.27
6.69
0.8
-0.74
3.42
4.64
-1.18
-0.53
-1.16
0.49
1.5

> <PUBCHEM_SHAPE_SELFOVERLAP>
1201.775

> <PUBCHEM_SHAPE_VOLUME>
302.9

> <PUBCHEM_COORDINATE_TYPE>
2
5
10

$$$$
