49831017
  -OEChem-10052120443D

 43 47  0     0  0  0  0  0  0999 V2000
    4.8492    1.9699   -0.3018 S   0  0  0  0  0  0  0  0  0  0  0  0
   -0.6901    1.5109   -0.6400 F   0  0  0  0  0  0  0  0  0  0  0  0
   -1.5641   -3.0754    0.0170 F   0  0  0  0  0  0  0  0  0  0  0  0
    3.4305   -2.6883    0.4350 O   0  0  0  0  0  0  0  0  0  0  0  0
    6.0534   -1.5374    0.3523 O   0  0  0  0  0  0  0  0  0  0  0  0
    2.1335    1.1190   -0.2852 N   0  0  0  0  0  0  0  0  0  0  0  0
    5.9790    0.7501   -0.0377 N   0  0  0  0  0  0  0  0  0  0  0  0
   -2.5040   -0.5118   -0.4821 N   0  0  0  0  0  0  0  0  0  0  0  0
    1.7003    2.5247   -0.4882 C   0  0  0  0  0  0  0  0  0  0  0  0
    2.1226    3.6142    0.4532 C   0  0  0  0  0  0  0  0  0  0  0  0
    0.6902    3.1684    0.4160 C   0  0  0  0  0  0  0  0  0  0  0  0
    1.1708    0.0630   -0.2163 C   0  0  0  0  0  0  0  0  0  0  0  0
    3.5003    0.8320   -0.1726 C   0  0  0  0  0  0  0  0  0  0  0  0
    1.5897   -1.2611    0.0273 C   0  0  0  0  0  0  0  0  0  0  0  0
    3.9589   -0.4164    0.0568 C   0  0  0  0  0  0  0  0  0  0  0  0
   -0.2078    0.2850   -0.3857 C   0  0  0  0  0  0  0  0  0  0  0  0
    3.0303   -1.5564    0.1970 C   0  0  0  0  0  0  0  0  0  0  0  0
    0.6692   -2.3147    0.1075 C   0  0  0  0  0  0  0  0  0  0  0  0
   -1.1266   -0.7660   -0.3074 C   0  0  0  0  0  0  0  0  0  0  0  0
    5.4389   -0.5014    0.1465 C   0  0  0  0  0  0  0  0  0  0  0  0
   -0.6891   -2.0627   -0.0595 C   0  0  0  0  0  0  0  0  0  0  0  0
   -3.5157   -1.1456    0.3044 C   0  0  0  0  0  0  0  0  0  0  0  0
   -4.8061   -0.3783    0.2212 C   0  0  0  0  0  0  0  0  0  0  0  0
   -5.0743    0.6372    1.1391 C   0  0  0  0  0  0  0  0  0  0  0  0
   -5.7349   -0.6821   -0.7740 C   0  0  0  0  0  0  0  0  0  0  0  0
   -6.2716    1.3487    1.0619 C   0  0  0  0  0  0  0  0  0  0  0  0
   -6.9321    0.0294   -0.8513 C   0  0  0  0  0  0  0  0  0  0  0  0
   -7.2005    1.0449    0.0666 C   0  0  0  0  0  0  0  0  0  0  0  0
    1.6476    2.7791   -1.5425 H   0  0  0  0  0  0  0  0  0  0  0  0
    2.6753    3.3716    1.3526 H   0  0  0  0  0  0  0  0  0  0  0  0
    2.3593    4.5831    0.0306 H   0  0  0  0  0  0  0  0  0  0  0  0
    0.3330    2.6440    1.2944 H   0  0  0  0  0  0  0  0  0  0  0  0
   -0.0284    3.8506   -0.0225 H   0  0  0  0  0  0  0  0  0  0  0  0
    0.9925   -3.3347    0.2961 H   0  0  0  0  0  0  0  0  0  0  0  0
    6.9759    0.9349   -0.0185 H   0  0  0  0  0  0  0  0  0  0  0  0
   -2.7153    0.4030   -0.8719 H   0  0  0  0  0  0  0  0  0  0  0  0
   -3.2109   -1.2183    1.3567 H   0  0  0  0  0  0  0  0  0  0  0  0
   -3.6928   -2.1710   -0.0413 H   0  0  0  0  0  0  0  0  0  0  0  0
   -4.3576    0.8848    1.9177 H   0  0  0  0  0  0  0  0  0  0  0  0
   -5.5369   -1.4696   -1.4963 H   0  0  0  0  0  0  0  0  0  0  0  0
   -6.4804    2.1398    1.7762 H   0  0  0  0  0  0  0  0  0  0  0  0
   -7.6552   -0.2068   -1.6265 H   0  0  0  0  0  0  0  0  0  0  0  0
   -8.1326    1.5991    0.0062 H   0  0  0  0  0  0  0  0  0  0  0  0
  1  7  1  0  0  0  0
  1 13  1  0  0  0  0
  2 16  1  0  0  0  0
  3 21  1  0  0  0  0
  4 17  2  0  0  0  0
  5 20  2  0  0  0  0
  6  9  1  0  0  0  0
  6 12  1  0  0  0  0
  6 13  1  0  0  0  0
  7 20  1  0  0  0  0
  7 35  1  0  0  0  0
  8 19  1  0  0  0  0
  8 22  1  0  0  0  0
  8 36  1  0  0  0  0
  9 10  1  0  0  0  0
  9 11  1  0  0  0  0
  9 29  1  0  0  0  0
 10 11  1  0  0  0  0
 10 30  1  0  0  0  0
 10 31  1  0  0  0  0
 11 32  1  0  0  0  0
 11 33  1  0  0  0  0
 12 14  1  0  0  0  0
 12 16  2  0  0  0  0
 13 15  2  0  0  0  0
 14 17  1  0  0  0  0
 14 18  2  0  0  0  0
 15 17  1  0  0  0  0
 15 20  1  0  0  0  0
 16 19  1  0  0  0  0
 18 21  1  0  0  0  0
 18 34  1  0  0  0  0
 19 21  2  0  0  0  0
 22 23  1  0  0  0  0
 22 37  1  0  0  0  0
 22 38  1  0  0  0  0
 23 24  2  0  0  0  0
 23 25  1  0  0  0  0
 24 26  1  0  0  0  0
 24 39  1  0  0  0  0
 25 27  2  0  0  0  0
 25 40  1  0  0  0  0
 26 28  2  0  0  0  0
 26 41  1  0  0  0  0
 27 28  1  0  0  0  0
 27 42  1  0  0  0  0
 28 43  1  0  0  0  0
M  END
> <PUBCHEM_COMPOUND_CID>
49831017

> <PUBCHEM_CONFORMER_RMSD>
0.8

> <PUBCHEM_CONFORMER_DIVERSEORDER>
1
18
17
4
12
13
8
10
9
7
14
5
11
19
2
3
15
16
6

> <PUBCHEM_MMFF94_PARTIAL_CHARGES>
41
1 -0.09
10 -0.2
11 -0.2
12 0.1
13 0.2
14 0.09
15 0.03
16 0.19
17 0.47
18 -0.15
19 0.1
2 -0.19
20 0.62
21 0.19
22 0.51
23 -0.14
24 -0.15
25 -0.15
26 -0.15
27 -0.15
28 -0.15
29 0.1
3 -0.19
30 0.1
31 0.1
32 0.1
33 0.1
34 0.15
35 0.37
36 0.4
39 0.15
4 -0.57
40 0.15
41 0.15
42 0.15
43 0.15
5 -0.57
6 -0.37
7 -0.44
8 -0.87
9 0.07

> <PUBCHEM_EFFECTIVE_ROTOR_COUNT>
4.6

> <PUBCHEM_PHARMACOPHORE_FEATURES>
10
1 4 acceptor
1 5 acceptor
1 6 cation
1 7 donor
1 8 cation
1 8 donor
5 1 7 13 15 20 rings
6 12 14 16 18 19 21 rings
6 23 24 25 26 27 28 rings
6 6 12 13 14 15 17 rings

> <PUBCHEM_HEAVY_ATOM_COUNT>
28

> <PUBCHEM_ATOM_DEF_STEREO_COUNT>
0

> <PUBCHEM_ATOM_UDEF_STEREO_COUNT>
0

> <PUBCHEM_BOND_DEF_STEREO_COUNT>
0

> <PUBCHEM_BOND_UDEF_STEREO_COUNT>
0

> <PUBCHEM_ISOTOPIC_ATOM_COUNT>
0

> <PUBCHEM_COMPONENT_COUNT>
1

> <PUBCHEM_CACTVS_TAUTO_COUNT>
6

> <PUBCHEM_CONFORMER_ID>
02F85C6900000001

> <PUBCHEM_MMFF94_ENERGY>
89.5662

> <PUBCHEM_FEATURE_SELFOVERLAP>
50.822

> <PUBCHEM_SHAPE_FINGERPRINT>
10050765 1 18122905596923100262
10411042 1 17977382738186577674
10688039 33 17967532328933637420
10906281 52 18339658801085882350
1100329 8 18338799026021710194
11089746 13 18272088323018110653
11578080 2 17272834657803131906
12166972 35 18060135457894408761
12236239 1 18059855069375527471
12788726 201 17917727793790808216
12838862 33 18338219553746079248
13140716 1 18120935263917794496
13402501 40 18260545611200151653
13785724 45 17980484460087652670
13878862 14 18262497257482936173
14020679 6 17749956673161980827
14117953 113 18343587313746970278
14464042 87 18202286883305436304
14466204 15 18340209583639872113
14790565 3 18410580590827411956
14849402 71 18338521949245095449
15081414 286 18340773649862381303
15183329 4 18411139138771514769
15238133 3 18336555996636667268
15475509 8 18129680616122547436
15483637 11 18048595920015777869
15849732 13 17704069594658354526
1601671 61 18411139142723337354
16087824 20 18337955593118838373
16993438 75 17899696761511811621
18335252 114 18411128126786474733
18681886 176 18201992253371360067
20028762 73 18130788936469966543
20511986 3 18130495401636415017
20642791 178 17825677917764811220
21033648 144 18335129947715222663
21033648 29 17240751884063584501
21267235 1 18335985260498706366
21298829 104 18271249327143295745
21304253 13 18342736312936941192
21421861 104 17968364685627919578
21792934 111 18338503171948277392
21792961 116 17896031062726802870
22122407 14 18341906194906882425
23559900 14 18340481279017903529
24771293 8 18129365164071495368
255183 451 17984428430494067342
2838139 119 18413388744421336277
3178227 256 18334586741373039539
335352 9 18410012156743839142
350125 39 18408604768532739837
3680242 22 18261385646752718210
397830 11 16299248954290026881
4017518 198 17274831259572550598
4073 2 18040721415500788299
4144715 1 18189628304767000643
4340502 62 16370724820582473442
5104073 3 18189047763043688402
513532 50 17917160424600525406
58260988 393 14779534687188715628
58260988 647 14418959667729931920
6328613 192 18337397152817605540
67856867 119 18272366508271477129
70251023 43 18120094975247728818

> <PUBCHEM_SHAPE_MULTIPOLES>
538.85
16.39
3.29
0.82
20.05
1.24
-0.04
2.44
-0.64
-2.97
-0.4
0.76
0.14
-0.95

> <PUBCHEM_SHAPE_SELFOVERLAP>
1190.124

> <PUBCHEM_SHAPE_VOLUME>
292.2

> <PUBCHEM_COORDINATE_TYPE>
2
5
10

$$$$
