49830338
  -OEChem-10062121543D

 38 41  0     0  0  0  0  0  0999 V2000
    0.6131   -4.9701   -0.9178 Cl  0  0  0  0  0  0  0  0  0  0  0  0
   -1.6480    1.3157    0.5405 O   0  0  0  0  0  0  0  0  0  0  0  0
    4.5271    0.1768    1.5403 N   0  0  0  0  0  0  0  0  0  0  0  0
    5.1228    2.1491    0.2919 N   0  0  0  0  0  0  0  0  0  0  0  0
   -2.0913   -0.9054   -0.0870 N   0  0  0  0  0  0  0  0  0  0  0  0
   -0.7172   -2.7928   -0.4619 N   0  0  0  0  0  0  0  0  0  0  0  0
    2.6864   -0.4577    0.4633 C   0  0  0  0  0  0  0  0  0  0  0  0
    3.1813    0.7199   -0.1570 C   0  0  0  0  0  0  0  0  0  0  0  0
    1.5320   -1.2496    0.1495 C   0  0  0  0  0  0  0  0  0  0  0  0
    4.3291    1.0895    0.5380 C   0  0  0  0  0  0  0  0  0  0  0  0
    3.5349   -0.7683    1.5040 C   0  0  0  0  0  0  0  0  0  0  0  0
    2.7915    1.5282   -1.2373 C   0  0  0  0  0  0  0  0  0  0  0  0
    0.2639   -0.6801    0.1855 C   0  0  0  0  0  0  0  0  0  0  0  0
    1.6767   -2.5897   -0.1920 C   0  0  0  0  0  0  0  0  0  0  0  0
   -0.8184   -1.4873   -0.1259 C   0  0  0  0  0  0  0  0  0  0  0  0
    3.5783    2.6390   -1.5361 C   0  0  0  0  0  0  0  0  0  0  0  0
    0.5311   -3.3114   -0.4864 C   0  0  0  0  0  0  0  0  0  0  0  0
    4.7002    2.8914   -0.7580 C   0  0  0  0  0  0  0  0  0  0  0  0
   -2.4215    0.4152    0.2325 C   0  0  0  0  0  0  0  0  0  0  0  0
   -3.8696    0.7420    0.1574 C   0  0  0  0  0  0  0  0  0  0  0  0
   -4.2772    2.0493   -0.1083 C   0  0  0  0  0  0  0  0  0  0  0  0
   -4.8211   -0.2593    0.3513 C   0  0  0  0  0  0  0  0  0  0  0  0
   -5.6363    2.3552   -0.1801 C   0  0  0  0  0  0  0  0  0  0  0  0
   -6.1801    0.0465    0.2795 C   0  0  0  0  0  0  0  0  0  0  0  0
   -6.5877    1.3539    0.0139 C   0  0  0  0  0  0  0  0  0  0  0  0
    3.5266   -1.5730    2.2271 H   0  0  0  0  0  0  0  0  0  0  0  0
    5.2884    0.1980    2.2045 H   0  0  0  0  0  0  0  0  0  0  0  0
    0.2113    0.3600    0.4626 H   0  0  0  0  0  0  0  0  0  0  0  0
    1.9089    1.3036   -1.8275 H   0  0  0  0  0  0  0  0  0  0  0  0
    2.6545   -3.0612   -0.2330 H   0  0  0  0  0  0  0  0  0  0  0  0
    3.3181    3.2933   -2.3613 H   0  0  0  0  0  0  0  0  0  0  0  0
    5.3250    3.7533   -0.9770 H   0  0  0  0  0  0  0  0  0  0  0  0
   -2.8259   -1.5470   -0.3692 H   0  0  0  0  0  0  0  0  0  0  0  0
   -3.5524    2.8432   -0.2678 H   0  0  0  0  0  0  0  0  0  0  0  0
   -4.5525   -1.2820    0.5976 H   0  0  0  0  0  0  0  0  0  0  0  0
   -5.9539    3.3729   -0.3877 H   0  0  0  0  0  0  0  0  0  0  0  0
   -6.9216   -0.7310    0.4389 H   0  0  0  0  0  0  0  0  0  0  0  0
   -7.6459    1.5924   -0.0402 H   0  0  0  0  0  0  0  0  0  0  0  0
  1 17  1  0  0  0  0
  2 19  2  0  0  0  0
  3 10  1  0  0  0  0
  3 11  1  0  0  0  0
  3 27  1  0  0  0  0
  4 10  1  0  0  0  0
  4 18  2  0  0  0  0
  5 15  1  0  0  0  0
  5 19  1  0  0  0  0
  5 33  1  0  0  0  0
  6 15  2  0  0  0  0
  6 17  1  0  0  0  0
  7  8  1  0  0  0  0
  7  9  1  0  0  0  0
  7 11  2  0  0  0  0
  8 10  2  0  0  0  0
  8 12  1  0  0  0  0
  9 13  2  0  0  0  0
  9 14  1  0  0  0  0
 11 26  1  0  0  0  0
 12 16  2  0  0  0  0
 12 29  1  0  0  0  0
 13 15  1  0  0  0  0
 13 28  1  0  0  0  0
 14 17  2  0  0  0  0
 14 30  1  0  0  0  0
 16 18  1  0  0  0  0
 16 31  1  0  0  0  0
 18 32  1  0  0  0  0
 19 20  1  0  0  0  0
 20 21  2  0  0  0  0
 20 22  1  0  0  0  0
 21 23  1  0  0  0  0
 21 34  1  0  0  0  0
 22 24  2  0  0  0  0
 22 35  1  0  0  0  0
 23 25  2  0  0  0  0
 23 36  1  0  0  0  0
 24 25  1  0  0  0  0
 24 37  1  0  0  0  0
 25 38  1  0  0  0  0
M  END
> <PUBCHEM_COMPOUND_CID>
49830338

> <PUBCHEM_CONFORMER_RMSD>
0.8

> <PUBCHEM_CONFORMER_DIVERSEORDER>
1
6
2
8
7
4
5
3

> <PUBCHEM_MMFF94_PARTIAL_CHARGES>
37
1 -0.18
10 0.11
11 -0.3
12 -0.15
13 -0.15
14 -0.15
15 0.43
16 -0.15
17 0.49
18 0.16
19 0.54
2 -0.57
20 0.09
21 -0.15
22 -0.15
23 -0.15
24 -0.15
25 -0.15
26 0.15
27 0.27
28 0.15
29 0.15
3 0.03
30 0.15
31 0.15
32 0.15
33 0.37
34 0.15
35 0.15
36 0.15
37 0.15
38 0.15
4 -0.57
5 -0.55
6 -0.62
7 -0.05
9 0.05

> <PUBCHEM_EFFECTIVE_ROTOR_COUNT>
4

> <PUBCHEM_PHARMACOPHORE_FEATURES>
9
1 2 acceptor
1 3 cation
1 3 donor
1 4 acceptor
1 5 donor
5 3 7 8 10 11 rings
6 20 21 22 23 24 25 rings
6 4 8 10 12 16 18 rings
6 6 9 13 14 15 17 rings

> <PUBCHEM_HEAVY_ATOM_COUNT>
25

> <PUBCHEM_ATOM_DEF_STEREO_COUNT>
0

> <PUBCHEM_ATOM_UDEF_STEREO_COUNT>
0

> <PUBCHEM_BOND_DEF_STEREO_COUNT>
0

> <PUBCHEM_BOND_UDEF_STEREO_COUNT>
0

> <PUBCHEM_ISOTOPIC_ATOM_COUNT>
0

> <PUBCHEM_COMPONENT_COUNT>
1

> <PUBCHEM_CACTVS_TAUTO_COUNT>
18

> <PUBCHEM_CONFORMER_ID>
02F859C200000001

> <PUBCHEM_MMFF94_ENERGY>
71.7691

> <PUBCHEM_FEATURE_SELFOVERLAP>
45.784

> <PUBCHEM_SHAPE_FINGERPRINT>
10090160 65 18410004412896763451
10411042 1 17475516079635967927
10483366 6 18193580904057488294
10763959 59 18263086522199442788
10835480 77 18264764360581847941
10937287 8 18411703231033165246
12107183 9 18335972130836131690
12342043 65 13552288352950427704
12403259 118 18261105326510221875
12403259 327 16805046207162638248
12422481 6 17749382638082844445
12633257 1 15213583484969383988
12788726 201 17905321085140720098
13540713 5 18045207496351807178
13583140 156 16951664935933694223
13785724 45 17902785259324315330
13955234 65 18195533597384221299
13965767 371 18113612409202955132
14117953 113 18337388245192538652
14251764 38 18189619337286619297
14294032 229 18127699433630003143
1454969 45 18340204215516294911
14767858 380 18271231833809570983
14790565 3 18339643468157903101
15183329 4 9079121068616546395
15342168 16 18409448089766403511
15840311 113 18049733911120708865
15961568 22 17968101902032766405
16988056 13 17978510828209184982
17810953 82 18335703827754309004
17844677 252 18124884452419452649
18222031 100 11746938685302054219
18681886 176 18410571786830108328
18785283 64 18337951160754877814
19319366 153 18201430351268698159
19427546 62 18410012096688643275
1979834 28 18334864878997033493
20157964 124 18337388237119197997
20505436 4 18115025329248068002
20567600 9 18196390138036864932
20715895 44 18190452754236677149
21033648 144 18040427824151777677
21049683 271 18051703135860454742
21302155 148 18337394941251715771
22149856 69 18272102565688814635
23559900 14 18194124006434556563
239999 70 18200316485675752079
245318 6 17678758922992591509
3472631 163 18268996551950041076
474 4 18409450250082374571
513532 50 18271817791596958996
5219985 13 18341049713175102270
6058803 2 17900809763852539754
6327066 14 18337954601060300140
67856867 119 18266175042014985267
7808743 9 18267303329881297040
960060 61 12175617395256966577
9981440 41 18409452522252281195

> <PUBCHEM_SHAPE_MULTIPOLES>
490.56
13.8
4.49
1.07
17.54
5.04
0.02
-13.92
1.49
-3.25
-2.14
-1.38
-0.14
-0.84

> <PUBCHEM_SHAPE_SELFOVERLAP>
1090.24

> <PUBCHEM_SHAPE_VOLUME>
262.3

> <PUBCHEM_COORDINATE_TYPE>
2
5
10

$$$$
