49830731
  -OEChem-10052115183D

 29 31  0     0  0  0  0  0  0999 V2000
    2.5635   -1.9962    0.1529 S   0  0  0  0  0  0  0  0  0  0  0  0
   -3.5599   -1.4398   -0.8990 F   0  0  0  0  0  0  0  0  0  0  0  0
    4.9221   -0.2833   -0.0850 O   0  0  0  0  0  0  0  0  0  0  0  0
   -1.2066   -2.0797    0.2769 N   0  0  0  0  0  0  0  0  0  0  0  0
   -0.0135   -2.7603    0.2973 N   0  0  0  0  0  0  0  0  0  0  0  0
    3.9153    1.8018   -0.2095 N   0  0  0  0  0  0  0  0  0  0  0  0
    0.2741   -0.5205    0.0994 C   0  0  0  0  0  0  0  0  0  0  0  0
   -1.0663   -0.6974    0.1556 C   0  0  0  0  0  0  0  0  0  0  0  0
    0.8355   -1.7801    0.1882 C   0  0  0  0  0  0  0  0  0  0  0  0
   -2.1841    0.2140    0.1146 C   0  0  0  0  0  0  0  0  0  0  0  0
    1.3245    0.4166   -0.0123 C   0  0  0  0  0  0  0  0  0  0  0  0
    2.5798   -0.2214    0.0027 C   0  0  0  0  0  0  0  0  0  0  0  0
   -3.4053   -0.1970   -0.4193 C   0  0  0  0  0  0  0  0  0  0  0  0
   -2.0402    1.5099    0.6101 C   0  0  0  0  0  0  0  0  0  0  0  0
    3.8672    0.3975   -0.0895 C   0  0  0  0  0  0  0  0  0  0  0  0
   -4.4829    0.6879   -0.4577 C   0  0  0  0  0  0  0  0  0  0  0  0
   -3.1178    2.3949    0.5715 C   0  0  0  0  0  0  0  0  0  0  0  0
   -4.3391    1.9840    0.0377 C   0  0  0  0  0  0  0  0  0  0  0  0
    5.1337    2.5692   -0.3346 C   0  0  0  0  0  0  0  0  0  0  0  0
    1.1809    1.4850   -0.1010 H   0  0  0  0  0  0  0  0  0  0  0  0
   -2.0634   -2.6144    0.3516 H   0  0  0  0  0  0  0  0  0  0  0  0
   -1.1047    1.8547    1.0424 H   0  0  0  0  0  0  0  0  0  0  0  0
   -5.4338    0.3676   -0.8731 H   0  0  0  0  0  0  0  0  0  0  0  0
   -3.0068    3.4032    0.9597 H   0  0  0  0  0  0  0  0  0  0  0  0
   -5.1783    2.6728    0.0083 H   0  0  0  0  0  0  0  0  0  0  0  0
    3.0538    2.3358   -0.1893 H   0  0  0  0  0  0  0  0  0  0  0  0
    5.3867    2.9710    0.6495 H   0  0  0  0  0  0  0  0  0  0  0  0
    4.9534    3.3918   -1.0306 H   0  0  0  0  0  0  0  0  0  0  0  0
    5.9519    1.9437   -0.6990 H   0  0  0  0  0  0  0  0  0  0  0  0
  1  9  1  0  0  0  0
  1 12  1  0  0  0  0
  2 13  1  0  0  0  0
  3 15  2  0  0  0  0
  4  5  1  0  0  0  0
  4  8  1  0  0  0  0
  4 21  1  0  0  0  0
  5  9  2  0  0  0  0
  6 15  1  0  0  0  0
  6 19  1  0  0  0  0
  6 26  1  0  0  0  0
  7  8  2  0  0  0  0
  7  9  1  0  0  0  0
  7 11  1  0  0  0  0
  8 10  1  0  0  0  0
 10 13  1  0  0  0  0
 10 14  2  0  0  0  0
 11 12  2  0  0  0  0
 11 20  1  0  0  0  0
 12 15  1  0  0  0  0
 13 16  2  0  0  0  0
 14 17  1  0  0  0  0
 14 22  1  0  0  0  0
 16 18  1  0  0  0  0
 16 23  1  0  0  0  0
 17 18  2  0  0  0  0
 17 24  1  0  0  0  0
 18 25  1  0  0  0  0
 19 27  1  0  0  0  0
 19 28  1  0  0  0  0
 19 29  1  0  0  0  0
M  END
> <PUBCHEM_COMPOUND_CID>
49830731

> <PUBCHEM_CONFORMER_RMSD>
0.6

> <PUBCHEM_CONFORMER_DIVERSEORDER>
1
18
11
19
12
14
15
6
23
4
17
10
13
24
8
5
16
21
3
9
20
7
22
2

> <PUBCHEM_MMFF94_PARTIAL_CHARGES>
26
1 -0.11
10 0.05
11 -0.15
12 -0.05
13 0.19
14 -0.15
15 0.71
16 -0.15
17 -0.15
18 -0.15
19 0.3
2 -0.19
20 0.15
21 0.27
22 0.15
23 0.15
24 0.15
25 0.15
26 0.37
3 -0.57
4 0.3
5 -0.73
6 -0.73
7 -0.01
8 -0.2
9 0.39

> <PUBCHEM_EFFECTIVE_ROTOR_COUNT>
3

> <PUBCHEM_PHARMACOPHORE_FEATURES>
7
1 3 acceptor
1 4 donor
1 5 acceptor
1 6 donor
5 1 7 9 11 12 rings
5 4 5 7 8 9 rings
6 10 13 14 16 17 18 rings

> <PUBCHEM_HEAVY_ATOM_COUNT>
19

> <PUBCHEM_ATOM_DEF_STEREO_COUNT>
0

> <PUBCHEM_ATOM_UDEF_STEREO_COUNT>
0

> <PUBCHEM_BOND_DEF_STEREO_COUNT>
0

> <PUBCHEM_BOND_UDEF_STEREO_COUNT>
0

> <PUBCHEM_ISOTOPIC_ATOM_COUNT>
0

> <PUBCHEM_COMPONENT_COUNT>
1

> <PUBCHEM_CACTVS_TAUTO_COUNT>
7

> <PUBCHEM_CONFORMER_ID>
02F85B4B00000001

> <PUBCHEM_MMFF94_ENERGY>
67.2245

> <PUBCHEM_FEATURE_SELFOVERLAP>
35.789

> <PUBCHEM_SHAPE_FINGERPRINT>
10411042 1 17257374570908707866
10498660 4 18410855430216904301
12173636 292 18338797948164254158
12346645 44 18409448046890726163
12390115 104 18268451142336828488
12403260 363 18411689981317519914
12644460 14 17750230318809001482
12788726 201 17828194729671794410
13583140 156 16877940585289082288
14123255 52 18409167688320532912
14251764 75 17983870982077325473
14739800 52 18197196244128905016
14767858 380 18268977843414865303
14790565 3 18055643815588502137
14848178 96 18410853248558218696
15196674 1 18410292514480276772
15342168 16 18260272944737206597
15536298 74 18270679736341960534
17834072 32 18409453600304883144
18186145 218 18338517409173922310
20300324 65 18202562908316463349
204376 136 18335424560242588697
20510252 161 18267592475173882426
21033648 29 16370998577312717829
21524375 3 18410009914380643538
22950370 63 9511463342408756160
23402539 116 18343012294307231630
23402655 69 18271804579707674623
235170 7 16056605356665459380
23559900 14 18201999872817422698
245318 6 17389117929679193180
283562 15 18045218494803775235
335352 9 18409168771628471798
3472631 163 18271528577052731373
394222 165 18261949652914998122
474 4 18334576802322915521
5104073 3 18259987054470572162
6328613 192 18188501263506262924
633830 44 18340768135171995751
67856867 119 18339068312055262842
7808743 9 18264770042401522432
84936 182 18271239426647196344
9709674 26 18341619204633227934
9981440 41 18336261353301095258

> <PUBCHEM_SHAPE_MULTIPOLES>
366.77
9.97
2.89
0.71
3.73
0.13
-0.01
7.28
-1.41
1.07
0.17
-0.27
0.03
-0.84

> <PUBCHEM_SHAPE_SELFOVERLAP>
800.115

> <PUBCHEM_SHAPE_VOLUME>
203.2

> <PUBCHEM_COORDINATE_TYPE>
2
5
10

$$$$
