24905172
  -OEChem-10052115153D

 40 43  0     0  0  0  0  0  0999 V2000
   -3.7303   -0.1881    1.7151 O   0  0  0  0  0  0  0  0  0  0  0  0
   -4.8457   -0.2156   -0.9432 O   0  0  0  0  0  0  0  0  0  0  0  0
    2.6286   -1.0393    0.0605 N   0  0  0  0  0  0  0  0  0  0  0  0
    1.3436   -1.4035   -0.1066 N   0  0  0  0  0  0  0  0  0  0  0  0
    3.9737    0.9640    0.2595 N   0  0  0  0  0  0  0  0  0  0  0  0
    2.6118    2.9827    0.1180 N   0  0  0  0  0  0  0  0  0  0  0  0
    0.2443    2.9232   -0.1796 N   0  0  0  0  0  0  0  0  0  0  0  0
    3.6475   -2.0557    0.1737 C   0  0  0  0  0  0  0  0  0  0  0  0
    0.6947   -0.2357   -0.1710 C   0  0  0  0  0  0  0  0  0  0  0  0
    1.5548    0.8713   -0.0464 C   0  0  0  0  0  0  0  0  0  0  0  0
    2.8112    0.3110    0.1034 C   0  0  0  0  0  0  0  0  0  0  0  0
   -0.7301   -0.2197   -0.3502 C   0  0  0  0  0  0  0  0  0  0  0  0
    3.7413   -2.9030   -1.0977 C   0  0  0  0  0  0  0  0  0  0  0  0
    3.4264   -2.9402    1.4032 C   0  0  0  0  0  0  0  0  0  0  0  0
   -1.5723   -0.2252    0.7619 C   0  0  0  0  0  0  0  0  0  0  0  0
    1.4763    2.2600   -0.0356 C   0  0  0  0  0  0  0  0  0  0  0  0
   -2.9559   -0.2024    0.5845 C   0  0  0  0  0  0  0  0  0  0  0  0
   -1.2698   -0.1943   -1.6367 C   0  0  0  0  0  0  0  0  0  0  0  0
   -3.4963   -0.2046   -0.7037 C   0  0  0  0  0  0  0  0  0  0  0  0
   -2.6534   -0.1854   -1.8151 C   0  0  0  0  0  0  0  0  0  0  0  0
   -5.0826    0.1809    1.4304 C   0  0  0  0  0  0  0  0  0  0  0  0
   -5.5913   -0.5802    0.2216 C   0  0  0  0  0  0  0  0  0  0  0  0
    3.7734    2.2996    0.2540 C   0  0  0  0  0  0  0  0  0  0  0  0
    4.6081   -1.5425    0.3023 H   0  0  0  0  0  0  0  0  0  0  0  0
    4.5736   -3.6115   -1.0293 H   0  0  0  0  0  0  0  0  0  0  0  0
    3.9080   -2.2701   -1.9764 H   0  0  0  0  0  0  0  0  0  0  0  0
    2.8244   -3.4773   -1.2705 H   0  0  0  0  0  0  0  0  0  0  0  0
    3.3676   -2.3338    2.3139 H   0  0  0  0  0  0  0  0  0  0  0  0
    4.2523   -3.6493    1.5227 H   0  0  0  0  0  0  0  0  0  0  0  0
    2.4973   -3.5159    1.3265 H   0  0  0  0  0  0  0  0  0  0  0  0
   -1.1589   -0.2360    1.7683 H   0  0  0  0  0  0  0  0  0  0  0  0
   -0.6248   -0.1853   -2.5123 H   0  0  0  0  0  0  0  0  0  0  0  0
   -3.0653   -0.1743   -2.8205 H   0  0  0  0  0  0  0  0  0  0  0  0
   -5.1237    1.2657    1.2717 H   0  0  0  0  0  0  0  0  0  0  0  0
   -5.6855   -0.0587    2.3118 H   0  0  0  0  0  0  0  0  0  0  0  0
   -5.5107   -1.6650    0.3637 H   0  0  0  0  0  0  0  0  0  0  0  0
   -6.6417   -0.3372    0.0339 H   0  0  0  0  0  0  0  0  0  0  0  0
    4.6628    2.9087    0.3749 H   0  0  0  0  0  0  0  0  0  0  0  0
   -0.6180    2.4117   -0.2960 H   0  0  0  0  0  0  0  0  0  0  0  0
    0.2321    3.9342   -0.1662 H   0  0  0  0  0  0  0  0  0  0  0  0
  1 17  1  0  0  0  0
  1 21  1  0  0  0  0
  2 19  1  0  0  0  0
  2 22  1  0  0  0  0
  3  4  1  0  0  0  0
  3  8  1  0  0  0  0
  3 11  1  0  0  0  0
  4  9  2  0  0  0  0
  5 11  2  0  0  0  0
  5 23  1  0  0  0  0
  6 16  1  0  0  0  0
  6 23  2  0  0  0  0
  7 16  1  0  0  0  0
  7 39  1  0  0  0  0
  7 40  1  0  0  0  0
  8 13  1  0  0  0  0
  8 14  1  0  0  0  0
  8 24  1  0  0  0  0
  9 10  1  0  0  0  0
  9 12  1  0  0  0  0
 10 11  1  0  0  0  0
 10 16  2  0  0  0  0
 12 15  2  0  0  0  0
 12 18  1  0  0  0  0
 13 25  1  0  0  0  0
 13 26  1  0  0  0  0
 13 27  1  0  0  0  0
 14 28  1  0  0  0  0
 14 29  1  0  0  0  0
 14 30  1  0  0  0  0
 15 17  1  0  0  0  0
 15 31  1  0  0  0  0
 17 19  2  0  0  0  0
 18 20  2  0  0  0  0
 18 32  1  0  0  0  0
 19 20  1  0  0  0  0
 20 33  1  0  0  0  0
 21 22  1  0  0  0  0
 21 34  1  0  0  0  0
 21 35  1  0  0  0  0
 22 36  1  0  0  0  0
 22 37  1  0  0  0  0
 23 38  1  0  0  0  0
M  END
> <PUBCHEM_COMPOUND_CID>
24905172

> <PUBCHEM_CONFORMER_RMSD>
0.6

> <PUBCHEM_CONFORMER_DIVERSEORDER>
2
6
3
5
4
1

> <PUBCHEM_MMFF94_PARTIAL_CHARGES>
26
1 -0.36
11 0.11
12 0.05
15 -0.15
16 0.41
17 0.08
18 -0.15
19 0.08
2 -0.36
20 -0.15
21 0.28
22 0.28
23 0.47
3 0.31
31 0.15
32 0.15
33 0.15
38 0.15
39 0.4
4 -0.71
40 0.4
5 -0.57
6 -0.62
7 -0.9
8 0.26
9 0.23

> <PUBCHEM_EFFECTIVE_ROTOR_COUNT>
2.8

> <PUBCHEM_PHARMACOPHORE_FEATURES>
12
1 1 acceptor
1 2 acceptor
1 4 acceptor
1 7 cation
1 7 donor
3 3 5 11 cation
3 5 6 23 cation
3 8 13 14 hydrophobe
5 3 4 9 10 11 rings
6 1 2 17 19 21 22 rings
6 12 15 17 18 19 20 rings
6 5 6 10 11 16 23 rings

> <PUBCHEM_HEAVY_ATOM_COUNT>
23

> <PUBCHEM_ATOM_DEF_STEREO_COUNT>
0

> <PUBCHEM_ATOM_UDEF_STEREO_COUNT>
0

> <PUBCHEM_BOND_DEF_STEREO_COUNT>
0

> <PUBCHEM_BOND_UDEF_STEREO_COUNT>
0

> <PUBCHEM_ISOTOPIC_ATOM_COUNT>
0

> <PUBCHEM_COMPONENT_COUNT>
1

> <PUBCHEM_CACTVS_TAUTO_COUNT>
5

> <PUBCHEM_CONFORMER_ID>
017C05D400000002

> <PUBCHEM_MMFF94_ENERGY>
62.5609

> <PUBCHEM_FEATURE_SELFOVERLAP>
61.217

> <PUBCHEM_SHAPE_FINGERPRINT>
10411042 1 18195245517085198318
11370993 144 18260835882507020961
11552529 35 18126007311342334875
11640471 11 17702673305175432809
12107183 9 17983305828793949529
12236239 1 17703511077232605493
12422481 6 17915191113555355641
12553582 1 18268426833270741838
12633257 1 18042112318693683424
12644460 14 18411135853137227818
12730499 353 18261678180816515458
13009979 54 17631180697058217426
13140716 1 18122053467554745624
13533116 47 18409452496840952355
13583140 156 18267025136496860307
13631057 29 17767958002387076831
13955234 65 18410570717156184066
14386348 63 17603584144901504139
14739800 52 16773219799683308144
14790565 3 18121505923423064516
15842332 3 17774426304485471855
17349148 13 17418092114064574039
17818456 19 17344640231476018361
17844677 252 18409450250493740253
1813 80 18058179315029071390
18222031 100 18271240500510774454
18681886 176 16629965554976918512
19784866 34 18054504978976153168
20369508 70 18261107431424485570
20511986 3 17703497887414855281
20645477 70 18410005529140062606
20715895 44 17556312674660806721
20739085 24 18343029856476068564
20832881 197 18043247946812500387
21033648 29 17894900854846449621
21041028 32 18340204068674925932
21065201 7 16370718197974731695
21344244 78 18131058308175856169
22182313 1 17749656437783756861
2255824 54 18341893004740504110
23175994 123 18263926544661710223
23557571 272 16877931729018928493
23559900 14 17022900116706697319
31174 14 18334575737429579878
312423 11 18342469096903259553
3286 77 18260267408677283999
341906 21 15841554063547600323
3421961 26 18409165476834661234
345986 75 18129659699399863552
474 4 18197495340491234504
5104073 3 18411141312357068937
5309563 4 17978508633197267655
602551 16 16081368621812140489
6049 1 17821723905861749365
633830 44 18056767756794773564
77492 1 17703505579663800349
7970288 3 18195528086746560166
8272917 22 18341898510408217902
8863177 126 18041573506736813523
9841814 1 18335135341936138082

> <PUBCHEM_SHAPE_MULTIPOLES>
436.69
10.32
2.92
1.33
9.87
0.65
0.11
-3.03
-1.98
-5.98
-0.23
1.2
-0.51
-0.05

> <PUBCHEM_SHAPE_SELFOVERLAP>
969.465

> <PUBCHEM_SHAPE_VOLUME>
232

> <PUBCHEM_COORDINATE_TYPE>
2
5
10

$$$$
