44403669
  -OEChem-10062121593D

 64 67  0     1  0  0  0  0  0999 V2000
   -2.2904    1.7119   -0.0972 O   0  0  0  0  0  0  0  0  0  0  0  0
   -2.1338   -0.6051    1.5432 O   0  0  0  0  0  0  0  0  0  0  0  0
   -1.7312    2.1139   -2.2937 O   0  0  0  0  0  0  0  0  0  0  0  0
   -1.8090   -6.4232   -0.9250 O   0  0  0  0  0  0  0  0  0  0  0  0
    4.3963    2.4030    1.5767 O   0  0  0  0  0  0  0  0  0  0  0  0
    6.3966    2.3643   -0.5834 O   0  0  0  0  0  0  0  0  0  0  0  0
    2.7291   -2.0085    0.1482 O   0  0  0  0  0  0  0  0  0  0  0  0
    3.1638   -1.0077    2.1421 O   0  0  0  0  0  0  0  0  0  0  0  0
   -6.4297    2.0941    1.1103 N   0  0  0  0  0  0  0  0  0  0  0  0
   -4.0190   -0.5703    0.1950 N   0  0  0  0  0  0  0  0  0  0  0  0
   -4.4178    0.7916    0.5062 C   0  0  1  0  0  0  0  0  0  0  0  0
   -3.6829    1.7622   -0.4336 C   0  0  1  0  0  0  0  0  0  0  0  0
   -4.1265    3.2265   -0.3564 C   0  0  0  0  0  0  0  0  0  0  0  0
   -5.9494    0.8725    0.4787 C   0  0  0  0  0  0  0  0  0  0  0  0
   -5.5488    3.4400   -0.8612 C   0  0  0  0  0  0  0  0  0  0  0  0
   -6.6292    3.2117    0.1950 C   0  0  0  0  0  0  0  0  0  0  0  0
   -2.8960   -1.1526    0.7509 C   0  0  0  0  0  0  0  0  0  0  0  0
   -1.4304    1.9052   -1.1286 C   0  0  0  0  0  0  0  0  0  0  0  0
   -2.6098   -2.5422    0.3107 C   0  0  0  0  0  0  0  0  0  0  0  0
   -0.0266    1.8290   -0.6510 C   0  0  0  0  0  0  0  0  0  0  0  0
   -1.2998   -3.0214    0.3220 C   0  0  0  0  0  0  0  0  0  0  0  0
   -3.6505   -3.3672   -0.1159 C   0  0  0  0  0  0  0  0  0  0  0  0
    0.9776    1.3775   -1.5075 C   0  0  0  0  0  0  0  0  0  0  0  0
    0.2881    2.2094    0.6535 C   0  0  0  0  0  0  0  0  0  0  0  0
    2.6113    1.6871    0.2453 C   0  0  0  0  0  0  0  0  0  0  0  0
    2.2965    1.3066   -1.0592 C   0  0  0  0  0  0  0  0  0  0  0  0
    1.6070    2.1383    1.1016 C   0  0  0  0  0  0  0  0  0  0  0  0
   -1.0305   -4.3255   -0.0934 C   0  0  0  0  0  0  0  0  0  0  0  0
   -3.3813   -4.6712   -0.5313 C   0  0  0  0  0  0  0  0  0  0  0  0
   -2.0713   -5.1503   -0.5201 C   0  0  0  0  0  0  0  0  0  0  0  0
    3.9863    1.6133    0.7128 C   0  0  0  0  0  0  0  0  0  0  0  0
    4.9573    0.6052    0.1897 C   0  0  0  0  0  0  0  0  0  0  0  0
    4.7015   -0.7593    0.3260 C   0  0  0  0  0  0  0  0  0  0  0  0
    6.1258    1.0363   -0.4380 C   0  0  0  0  0  0  0  0  0  0  0  0
    5.6143   -1.6927   -0.1656 C   0  0  0  0  0  0  0  0  0  0  0  0
    7.0385    0.1031   -0.9298 C   0  0  0  0  0  0  0  0  0  0  0  0
    6.7827   -1.2613   -0.7933 C   0  0  0  0  0  0  0  0  0  0  0  0
    3.4909   -1.2443    0.9763 C   0  0  0  0  0  0  0  0  0  0  0  0
   -4.0750    0.9837    1.5328 H   0  0  0  0  0  0  0  0  0  0  0  0
   -3.8301    1.3998   -1.4611 H   0  0  0  0  0  0  0  0  0  0  0  0
   -3.4528    3.8283   -0.9800 H   0  0  0  0  0  0  0  0  0  0  0  0
   -3.9979    3.6182    0.6604 H   0  0  0  0  0  0  0  0  0  0  0  0
   -6.3496    0.7383   -0.5341 H   0  0  0  0  0  0  0  0  0  0  0  0
   -6.3513    0.0358    1.0647 H   0  0  0  0  0  0  0  0  0  0  0  0
   -5.6449    4.4740   -1.2162 H   0  0  0  0  0  0  0  0  0  0  0  0
   -5.7361    2.8033   -1.7347 H   0  0  0  0  0  0  0  0  0  0  0  0
   -6.7288    4.1203    0.8014 H   0  0  0  0  0  0  0  0  0  0  0  0
   -7.5944    3.0894   -0.3111 H   0  0  0  0  0  0  0  0  0  0  0  0
   -5.8012    2.3701    1.8637 H   0  0  0  0  0  0  0  0  0  0  0  0
   -4.5342   -1.0425   -0.5407 H   0  0  0  0  0  0  0  0  0  0  0  0
   -0.4761   -2.3914    0.6465 H   0  0  0  0  0  0  0  0  0  0  0  0
   -4.6875   -3.0446   -0.1108 H   0  0  0  0  0  0  0  0  0  0  0  0
    0.7483    1.0771   -2.5265 H   0  0  0  0  0  0  0  0  0  0  0  0
   -0.4720    2.5747    1.3390 H   0  0  0  0  0  0  0  0  0  0  0  0
    3.0592    0.9629   -1.7528 H   0  0  0  0  0  0  0  0  0  0  0  0
    1.8323    2.4364    2.1224 H   0  0  0  0  0  0  0  0  0  0  0  0
   -0.0054   -4.6861   -0.0809 H   0  0  0  0  0  0  0  0  0  0  0  0
   -4.1966   -5.3119   -0.8562 H   0  0  0  0  0  0  0  0  0  0  0  0
   -0.8528   -6.5862   -0.8521 H   0  0  0  0  0  0  0  0  0  0  0  0
    5.4312   -2.7595   -0.0639 H   0  0  0  0  0  0  0  0  0  0  0  0
    7.9530    0.4243   -1.4213 H   0  0  0  0  0  0  0  0  0  0  0  0
    7.4939   -1.9879   -1.1754 H   0  0  0  0  0  0  0  0  0  0  0  0
    7.2481    2.4672   -1.0419 H   0  0  0  0  0  0  0  0  0  0  0  0
    1.9189   -2.3335    0.5953 H   0  0  0  0  0  0  0  0  0  0  0  0
  1 12  1  0  0  0  0
  1 18  1  0  0  0  0
  2 17  2  0  0  0  0
  3 18  2  0  0  0  0
  4 30  1  0  0  0  0
  4 59  1  0  0  0  0
  5 31  2  0  0  0  0
  6 34  1  0  0  0  0
  6 63  1  0  0  0  0
  7 38  1  0  0  0  0
  7 64  1  0  0  0  0
  8 38  2  0  0  0  0
  9 14  1  0  0  0  0
  9 16  1  0  0  0  0
  9 49  1  0  0  0  0
 10 11  1  0  0  0  0
 10 17  1  0  0  0  0
 10 50  1  0  0  0  0
 11 12  1  0  0  0  0
 11 14  1  0  0  0  0
 11 39  1  0  0  0  0
 12 13  1  0  0  0  0
 12 40  1  0  0  0  0
 13 15  1  0  0  0  0
 13 41  1  0  0  0  0
 13 42  1  0  0  0  0
 14 43  1  0  0  0  0
 14 44  1  0  0  0  0
 15 16  1  0  0  0  0
 15 45  1  0  0  0  0
 15 46  1  0  0  0  0
 16 47  1  0  0  0  0
 16 48  1  0  0  0  0
 17 19  1  0  0  0  0
 18 20  1  0  0  0  0
 19 21  2  0  0  0  0
 19 22  1  0  0  0  0
 20 23  2  0  0  0  0
 20 24  1  0  0  0  0
 21 28  1  0  0  0  0
 21 51  1  0  0  0  0
 22 29  2  0  0  0  0
 22 52  1  0  0  0  0
 23 26  1  0  0  0  0
 23 53  1  0  0  0  0
 24 27  2  0  0  0  0
 24 54  1  0  0  0  0
 25 26  2  0  0  0  0
 25 27  1  0  0  0  0
 25 31  1  0  0  0  0
 26 55  1  0  0  0  0
 27 56  1  0  0  0  0
 28 30  2  0  0  0  0
 28 57  1  0  0  0  0
 29 30  1  0  0  0  0
 29 58  1  0  0  0  0
 31 32  1  0  0  0  0
 32 33  2  0  0  0  0
 32 34  1  0  0  0  0
 33 35  1  0  0  0  0
 33 38  1  0  0  0  0
 34 36  2  0  0  0  0
 35 37  2  0  0  0  0
 35 60  1  0  0  0  0
 36 37  1  0  0  0  0
 36 61  1  0  0  0  0
 37 62  1  0  0  0  0
M  END
> <PUBCHEM_COMPOUND_CID>
44403669

> <PUBCHEM_CONFORMER_RMSD>
1.2

> <PUBCHEM_CONFORMER_DIVERSEORDER>
1
30
38
39
40
9
29
53
41
49
20
8
43
54
60
16
34
57
31
24
62
47
23
35
50
22
25
48
59
51
6
52
27
32
26
11
55
10
44
33
18
37
5
12
28
56
19
45
17
61
15
36
21
42
14
46
4
58
13
2
3
7

> <PUBCHEM_MMFF94_PARTIAL_CHARGES>
52
1 -0.43
10 -0.73
11 0.3
12 0.28
14 0.27
16 0.27
17 0.54
18 0.63
19 0.09
2 -0.57
20 0.09
21 -0.15
22 -0.15
23 -0.15
24 -0.15
25 0.09
26 -0.15
27 -0.15
28 -0.15
29 -0.15
3 -0.57
30 0.08
31 0.4
32 0.09
33 0.09
34 0.08
35 -0.15
36 -0.15
37 -0.15
38 0.63
4 -0.53
49 0.36
5 -0.57
50 0.37
51 0.15
52 0.15
53 0.15
54 0.15
55 0.15
56 0.15
57 0.15
58 0.15
59 0.45
6 -0.53
60 0.15
61 0.15
62 0.15
63 0.45
64 0.5
7 -0.65
8 -0.57
9 -0.9

> <PUBCHEM_EFFECTIVE_ROTOR_COUNT>
10.4

> <PUBCHEM_PHARMACOPHORE_FEATURES>
15
1 10 donor
1 2 acceptor
1 3 acceptor
1 4 donor
1 5 acceptor
1 6 donor
1 7 acceptor
1 8 acceptor
1 9 cation
1 9 donor
3 7 8 38 anion
6 19 21 22 28 29 30 rings
6 20 23 24 25 26 27 rings
6 32 33 34 35 36 37 rings
7 9 11 12 13 14 15 16 rings

> <PUBCHEM_HEAVY_ATOM_COUNT>
38

> <PUBCHEM_ATOM_DEF_STEREO_COUNT>
2

> <PUBCHEM_ATOM_UDEF_STEREO_COUNT>
0

> <PUBCHEM_BOND_DEF_STEREO_COUNT>
0

> <PUBCHEM_BOND_UDEF_STEREO_COUNT>
0

> <PUBCHEM_ISOTOPIC_ATOM_COUNT>
0

> <PUBCHEM_COMPONENT_COUNT>
1

> <PUBCHEM_CACTVS_TAUTO_COUNT>
35

> <PUBCHEM_CONFORMER_ID>
02A58BD500000001

> <PUBCHEM_MMFF94_ENERGY>
116.2778

> <PUBCHEM_FEATURE_SELFOVERLAP>
76.181

> <PUBCHEM_SHAPE_FINGERPRINT>
10290309 65 18119805803146070766
10462674 125 15331766854639553694
10462674 296 17907015428063416150
10864689 126 18267023852238400414
10940486 97 18261681466493527453
11014199 57 17831863821316558978
11524674 6 18343299228472303277
12522641 33 18337951165967353669
12677640 9 18342177825981950563
13008946 267 17765444145719046993
14028597 1 17630335139032517697
14040221 299 18269835316456259534
14068700 686 17765988781314440832
14114211 80 18270123392539013683
14444916 359 18339936900650931689
14840074 17 17968096391541595977
15001296 14 18123181574774221650
15230672 131 18336546015370489618
15274700 242 16805871932179898592
15297060 5 18200880586954514387
15361156 5 17968951906214793596
15400415 2 18338796693638937589
15439362 3 17976819784555140365
15927050 60 18411696557023681215
15968369 26 17179661681313639780
19301679 30 18048606116204601083
21133410 171 17330217091389121266
21133410 52 15823810518629830020
21781055 127 18122935065480487805
23516275 137 17974591116226965434
23559900 14 18411695504393138672
4017518 198 18411421666089326495
4073 2 18340763853712574264
4435113 14 18059027158916740670
45266715 3 18198335166212604013
5265222 85 18408326561999741549
6371380 46 18343015558604325953
653340 110 18195797694574443098

> <PUBCHEM_SHAPE_MULTIPOLES>
725.11
16.91
6.73
1.31
11.62
11.95
-0.01
-9.48
0.24
-10.47
1.65
0.38
-0.47
0.08

> <PUBCHEM_SHAPE_SELFOVERLAP>
1577.878

> <PUBCHEM_SHAPE_VOLUME>
388.8

> <PUBCHEM_COORDINATE_TYPE>
2
5
10

$$$$
