23647201
  -OEChem-10062121563D

 28 30  0     0  0  0  0  0  0999 V2000
    5.2646    2.0344    0.0028 Cl  0  0  0  0  0  0  0  0  0  0  0  0
   -2.4972    2.4865   -0.0017 F   0  0  0  0  0  0  0  0  0  0  0  0
   -4.0073    1.3582   -1.0847 F   0  0  0  0  0  0  0  0  0  0  0  0
   -3.9898    1.3365    1.0950 F   0  0  0  0  0  0  0  0  0  0  0  0
    0.8655   -3.1314   -0.0055 O   0  0  0  0  0  0  0  0  0  0  0  0
   -0.0746    2.3034   -0.0011 O   0  0  0  0  0  0  0  0  0  0  0  0
    0.6614   -1.7586   -0.0010 N   0  0  0  0  0  0  0  0  0  0  0  0
   -1.7542   -1.9130   -0.0005 N   0  0  0  0  0  0  0  0  0  0  0  0
   -2.8309   -1.0990   -0.0005 N   0  0  0  0  0  0  0  0  0  0  0  0
   -0.5793   -1.2317   -0.0006 C   0  0  0  0  0  0  0  0  0  0  0  0
   -0.8913    0.1023   -0.0009 C   0  0  0  0  0  0  0  0  0  0  0  0
    1.7702   -0.8587   -0.0006 C   0  0  0  0  0  0  0  0  0  0  0  0
    1.5507    0.5503   -0.0009 C   0  0  0  0  0  0  0  0  0  0  0  0
   -2.2956    0.1299   -0.0007 C   0  0  0  0  0  0  0  0  0  0  0  0
    0.1503    1.1014   -0.0012 C   0  0  0  0  0  0  0  0  0  0  0  0
    3.0907   -1.3288    0.0006 C   0  0  0  0  0  0  0  0  0  0  0  0
    2.6289    1.4399   -0.0005 C   0  0  0  0  0  0  0  0  0  0  0  0
   -3.1812    1.3070   -0.0011 C   0  0  0  0  0  0  0  0  0  0  0  0
   -1.9743   -3.3404    0.0017 C   0  0  0  0  0  0  0  0  0  0  0  0
    4.1617   -0.4320    0.0009 C   0  0  0  0  0  0  0  0  0  0  0  0
    3.9318    0.9439    0.0003 C   0  0  0  0  0  0  0  0  0  0  0  0
    3.3053   -2.3944    0.0014 H   0  0  0  0  0  0  0  0  0  0  0  0
    2.4599    2.5139   -0.0005 H   0  0  0  0  0  0  0  0  0  0  0  0
   -1.5137   -3.7635    0.8974 H   0  0  0  0  0  0  0  0  0  0  0  0
   -3.0489   -3.5437    0.0176 H   0  0  0  0  0  0  0  0  0  0  0  0
   -1.5399   -3.7615   -0.9079 H   0  0  0  0  0  0  0  0  0  0  0  0
    5.1761   -0.8238    0.0020 H   0  0  0  0  0  0  0  0  0  0  0  0
    0.9598   -3.3179   -0.9556 H   0  0  0  0  0  0  0  0  0  0  0  0
  1 21  1  0  0  0  0
  2 18  1  0  0  0  0
  3 18  1  0  0  0  0
  4 18  1  0  0  0  0
  5  7  1  0  0  0  0
  5 28  1  0  0  0  0
  6 15  2  0  0  0  0
  7 10  1  0  0  0  0
  7 12  1  0  0  0  0
  8  9  1  0  0  0  0
  8 10  1  0  0  0  0
  8 19  1  0  0  0  0
  9 14  2  0  0  0  0
 10 11  2  0  0  0  0
 11 14  1  0  0  0  0
 11 15  1  0  0  0  0
 12 13  2  0  0  0  0
 12 16  1  0  0  0  0
 13 15  1  0  0  0  0
 13 17  1  0  0  0  0
 14 18  1  0  0  0  0
 16 20  2  0  0  0  0
 16 22  1  0  0  0  0
 17 21  2  0  0  0  0
 17 23  1  0  0  0  0
 19 24  1  0  0  0  0
 19 25  1  0  0  0  0
 19 26  1  0  0  0  0
 20 21  1  0  0  0  0
 20 27  1  0  0  0  0
M  END
> <PUBCHEM_COMPOUND_CID>
23647201

> <PUBCHEM_CONFORMER_RMSD>
0.6

> <PUBCHEM_CONFORMER_DIVERSEORDER>
1

> <PUBCHEM_MMFF94_PARTIAL_CHARGES>
25
1 -0.18
10 -0.07
11 -0.09
12 0.1
13 0.09
14 0.11
15 0.57
16 -0.15
17 -0.15
18 1.2
19 0.26
2 -0.34
20 -0.15
21 0.18
22 0.15
23 0.15
27 0.15
28 0.4
3 -0.34
4 -0.34
5 -0.38
6 -0.57
7 -0.2
8 0.31
9 -0.71

> <PUBCHEM_EFFECTIVE_ROTOR_COUNT>
1

> <PUBCHEM_PHARMACOPHORE_FEATURES>
6
1 5 anion
1 6 acceptor
1 9 acceptor
5 8 9 10 11 14 rings
6 12 13 16 17 20 21 rings
6 7 10 11 12 13 15 rings

> <PUBCHEM_HEAVY_ATOM_COUNT>
21

> <PUBCHEM_ATOM_DEF_STEREO_COUNT>
0

> <PUBCHEM_ATOM_UDEF_STEREO_COUNT>
0

> <PUBCHEM_BOND_DEF_STEREO_COUNT>
0

> <PUBCHEM_BOND_UDEF_STEREO_COUNT>
0

> <PUBCHEM_ISOTOPIC_ATOM_COUNT>
0

> <PUBCHEM_COMPONENT_COUNT>
1

> <PUBCHEM_CACTVS_TAUTO_COUNT>
1

> <PUBCHEM_CONFORMER_ID>
0168D3E100000001

> <PUBCHEM_MMFF94_ENERGY>
42.7458

> <PUBCHEM_FEATURE_SELFOVERLAP>
30.566

> <PUBCHEM_SHAPE_FINGERPRINT>
10319926 262 18198322140067600648
10411042 1 17185596261709477670
10493431 412 18412553106461600689
10498660 4 18410295826412057420
10608611 8 18340767134787383280
10616163 171 18339364192315445230
10863032 1 18412825802551278410
10967382 1 18338798888461307334
1100329 8 16898211933425678232
11132069 177 18408598158804515168
11471102 20 18338511928906344372
12173636 292 18410290293971921524
12390115 104 18198361700278172696
12403814 3 17603580837623965741
12500047 106 18411131467864946112
13140716 1 18409730647212393090
13380535 76 18340202994774755551
138480 1 17329992391473592239
14178342 30 18265601247226580066
14790565 3 18268721506159960561
15196674 1 18410855486515176518
15309172 13 18337958870468373049
15442244 35 18409163295165380450
15536298 74 18342177756898184484
16087824 20 18339641257342418623
16945 1 18266741281427857126
18186145 218 18341337708249771772
19591789 44 18266180526207946858
20510252 161 18270686496852385498
20739085 24 17904511522396534057
21267235 1 18337681926693001322
21501502 16 18410006663206464442
2334 1 18338797943610862630
23402539 116 18125997411057323110
23557571 272 18200043966021702014
23559900 14 18343867693802120198
238 59 17539929959278824229
2748010 2 18411705425777414094
3091708 16 9195220682467213011
335352 9 18266458707414363742
34934 24 18408034122250689712
350125 39 18266464402361558921
4214541 1 18410574024333930816
5104073 3 18410008871299378626
633830 44 17985833631574801693
69090 78 18411415081719402989
7364860 26 18124877863438811470
9709674 26 18342461452199238942

> <PUBCHEM_SHAPE_MULTIPOLES>
385.54
7.98
3.18
0.66
5.19
1.51
0
-4.15
-0.01
-1.74
0
-0.25
-0.13
0

> <PUBCHEM_SHAPE_SELFOVERLAP>
852.59

> <PUBCHEM_SHAPE_VOLUME>
211.4

> <PUBCHEM_COORDINATE_TYPE>
2
5
10

$$$$
