20244403
  -OEChem-10052115183D

 18 19  0     0  0  0  0  0  0999 V2000
   -0.5956    1.4917    0.0048 S   0  0  0  0  0  0  0  0  0  0  0  0
   -3.5294    1.0574   -0.0109 O   0  0  0  0  0  0  0  0  0  0  0  0
    3.3220    0.5801   -0.0013 N   0  0  0  0  0  0  0  0  0  0  0  0
   -3.5228   -1.2356    0.0018 N   0  0  0  0  0  0  0  0  0  0  0  0
    0.8189   -0.6720    0.0000 C   0  0  0  0  0  0  0  0  0  0  0  0
    0.9447    0.7203    0.0018 C   0  0  0  0  0  0  0  0  0  0  0  0
   -0.5606   -1.0680    0.0010 C   0  0  0  0  0  0  0  0  0  0  0  0
   -1.4241    0.0017    0.0031 C   0  0  0  0  0  0  0  0  0  0  0  0
    1.9963   -1.4443   -0.0024 C   0  0  0  0  0  0  0  0  0  0  0  0
    2.1997    1.3323    0.0012 C   0  0  0  0  0  0  0  0  0  0  0  0
   -2.8510   -0.0019    0.0036 C   0  0  0  0  0  0  0  0  0  0  0  0
    3.2018   -0.7617   -0.0028 C   0  0  0  0  0  0  0  0  0  0  0  0
   -0.8757   -2.1042   -0.0003 H   0  0  0  0  0  0  0  0  0  0  0  0
    1.9676   -2.5286   -0.0039 H   0  0  0  0  0  0  0  0  0  0  0  0
    2.3340    2.4071    0.0025 H   0  0  0  0  0  0  0  0  0  0  0  0
    4.1409   -1.3063   -0.0047 H   0  0  0  0  0  0  0  0  0  0  0  0
   -3.0428   -2.1289    0.0065 H   0  0  0  0  0  0  0  0  0  0  0  0
   -4.5371   -1.2677   -0.0040 H   0  0  0  0  0  0  0  0  0  0  0  0
  1  6  1  0  0  0  0
  1  8  1  0  0  0  0
  2 11  2  0  0  0  0
  3 10  2  0  0  0  0
  3 12  1  0  0  0  0
  4 11  1  0  0  0  0
  4 17  1  0  0  0  0
  4 18  1  0  0  0  0
  5  6  2  0  0  0  0
  5  7  1  0  0  0  0
  5  9  1  0  0  0  0
  6 10  1  0  0  0  0
  7  8  2  0  0  0  0
  7 13  1  0  0  0  0
  8 11  1  0  0  0  0
  9 12  2  0  0  0  0
  9 14  1  0  0  0  0
 10 15  1  0  0  0  0
 12 16  1  0  0  0  0
M  END
> <PUBCHEM_COMPOUND_CID>
20244403

> <PUBCHEM_CONFORMER_RMSD>
0.4

> <PUBCHEM_CONFORMER_DIVERSEORDER>
1
3
2
4

> <PUBCHEM_MMFF94_PARTIAL_CHARGES>
17
1 -0.08
10 0.16
11 0.71
12 0.16
13 0.15
14 0.15
15 0.15
16 0.15
17 0.37
18 0.37
2 -0.57
3 -0.62
4 -0.8
6 0.04
7 -0.15
8 -0.05
9 -0.15

> <PUBCHEM_EFFECTIVE_ROTOR_COUNT>
1

> <PUBCHEM_PHARMACOPHORE_FEATURES>
5
1 2 acceptor
1 3 acceptor
1 4 donor
5 1 5 6 7 8 rings
6 3 5 6 9 10 12 rings

> <PUBCHEM_HEAVY_ATOM_COUNT>
12

> <PUBCHEM_ATOM_DEF_STEREO_COUNT>
0

> <PUBCHEM_ATOM_UDEF_STEREO_COUNT>
0

> <PUBCHEM_BOND_DEF_STEREO_COUNT>
0

> <PUBCHEM_BOND_UDEF_STEREO_COUNT>
0

> <PUBCHEM_ISOTOPIC_ATOM_COUNT>
0

> <PUBCHEM_COMPONENT_COUNT>
1

> <PUBCHEM_CACTVS_TAUTO_COUNT>
2

> <PUBCHEM_CONFORMER_ID>
0134E7B300000001

> <PUBCHEM_MMFF94_ENERGY>
25.4912

> <PUBCHEM_FEATURE_SELFOVERLAP>
25.436

> <PUBCHEM_SHAPE_FINGERPRINT>
10219947 1 18343022185474560726
10608611 8 18409444795447781613
11132069 177 18413101745224983648
11471102 20 18410288090664053036
11769659 78 18409442570538508851
11806522 49 18265891544092814975
12032990 46 18410580595143289807
12932764 1 17458337499210045107
13380535 76 18337109063844278178
14144814 61 18412263930312791227
14325111 11 18410856572672475457
15442244 35 18123753045525643202
15775835 57 18413111666610097220
16945 1 18410856551371614856
17844478 74 18040720255537468293
18186145 218 18114461180212722303
193761 8 17546165203646333184
20201158 50 18408604742672823354
20645477 70 18340200804742582343
20871998 22 18054510197567094110
21501502 16 18337957766392875952
21501925 9 18410282636045115571
23402539 116 18340195337132695654
23402655 69 18340761577142004541
23463225 33 18409729547352248076
23552423 10 18333170561305466478
2748010 2 18050290567996436340
3248919 1 17240490233822474707
3312278 4 18411984650259586665
528886 8 18411695508766272114
63268167 104 18413111653788525089
8809292 202 18260555502077382603

> <PUBCHEM_SHAPE_MULTIPOLES>
234.97
5.69
1.6
0.6
2.09
0.11
0
-0.43
0.01
-0.15
0
-0.03
0.01
0

> <PUBCHEM_SHAPE_SELFOVERLAP>
501.065

> <PUBCHEM_SHAPE_VOLUME>
131.4

> <PUBCHEM_COORDINATE_TYPE>
2
5
10

$$$$
