24905336
  -OEChem-10052115143D

 42 44  0     0  0  0  0  0  0999 V2000
    4.9216    1.5253   -1.7937 Br  0  0  0  0  0  0  0  0  0  0  0  0
    3.7782    0.5181    0.9296 O   0  0  0  0  0  0  0  0  0  0  0  0
    4.7582   -1.0492    2.4132 O   0  0  0  0  0  0  0  0  0  0  0  0
   -2.8427    0.7903    0.4665 N   0  0  0  0  0  0  0  0  0  0  0  0
   -1.6506    1.3824    0.2662 N   0  0  0  0  0  0  0  0  0  0  0  0
   -3.9130   -1.3617    0.1735 N   0  0  0  0  0  0  0  0  0  0  0  0
   -2.3861   -3.0056   -0.7839 N   0  0  0  0  0  0  0  0  0  0  0  0
   -0.1226   -2.4926   -1.3414 N   0  0  0  0  0  0  0  0  0  0  0  0
   -3.9310    1.5535    1.0299 C   0  0  0  0  0  0  0  0  0  0  0  0
   -2.8699   -0.5204    0.0925 C   0  0  0  0  0  0  0  0  0  0  0  0
   -1.6040   -0.8071   -0.3873 C   0  0  0  0  0  0  0  0  0  0  0  0
   -0.9007    0.4046   -0.2539 C   0  0  0  0  0  0  0  0  0  0  0  0
   -4.3276    2.7218    0.1237 C   0  0  0  0  0  0  0  0  0  0  0  0
   -3.6019    2.0457    2.4414 C   0  0  0  0  0  0  0  0  0  0  0  0
    0.4718    0.6656   -0.6075 C   0  0  0  0  0  0  0  0  0  0  0  0
   -1.3767   -2.1037   -0.8367 C   0  0  0  0  0  0  0  0  0  0  0  0
    1.4840    0.4681    0.3317 C   0  0  0  0  0  0  0  0  0  0  0  0
    0.7880    1.1161   -1.8892 C   0  0  0  0  0  0  0  0  0  0  0  0
    2.8123    0.7210   -0.0108 C   0  0  0  0  0  0  0  0  0  0  0  0
   -3.5746   -2.5846   -0.2892 C   0  0  0  0  0  0  0  0  0  0  0  0
    2.1162    1.3689   -2.2319 C   0  0  0  0  0  0  0  0  0  0  0  0
    3.1283    1.1713   -1.2926 C   0  0  0  0  0  0  0  0  0  0  0  0
    3.5374   -0.4976    1.9079 C   0  0  0  0  0  0  0  0  0  0  0  0
    5.3056   -2.0301    1.5420 C   0  0  0  0  0  0  0  0  0  0  0  0
   -4.7957    0.8832    1.1051 H   0  0  0  0  0  0  0  0  0  0  0  0
   -3.5196    3.4562    0.0322 H   0  0  0  0  0  0  0  0  0  0  0  0
   -5.2076    3.2380    0.5217 H   0  0  0  0  0  0  0  0  0  0  0  0
   -4.5710    2.3679   -0.8842 H   0  0  0  0  0  0  0  0  0  0  0  0
   -2.7662    2.7541    2.4390 H   0  0  0  0  0  0  0  0  0  0  0  0
   -3.3261    1.2082    3.0917 H   0  0  0  0  0  0  0  0  0  0  0  0
   -4.4671    2.5481    2.8869 H   0  0  0  0  0  0  0  0  0  0  0  0
    1.2018    0.1483    1.3317 H   0  0  0  0  0  0  0  0  0  0  0  0
    0.0105    1.2745   -2.6330 H   0  0  0  0  0  0  0  0  0  0  0  0
   -4.3606   -3.3316   -0.2612 H   0  0  0  0  0  0  0  0  0  0  0  0
    2.3438    1.7192   -3.2354 H   0  0  0  0  0  0  0  0  0  0  0  0
    0.6485   -1.8433   -1.3914 H   0  0  0  0  0  0  0  0  0  0  0  0
    0.0000   -3.4455   -1.6569 H   0  0  0  0  0  0  0  0  0  0  0  0
    3.0306   -0.0341    2.7610 H   0  0  0  0  0  0  0  0  0  0  0  0
    2.9173   -1.3195    1.5265 H   0  0  0  0  0  0  0  0  0  0  0  0
    6.2492   -2.3807    1.9685 H   0  0  0  0  0  0  0  0  0  0  0  0
    5.5056   -1.6005    0.5557 H   0  0  0  0  0  0  0  0  0  0  0  0
    4.6265   -2.8833    1.4512 H   0  0  0  0  0  0  0  0  0  0  0  0
  1 22  1  0  0  0  0
  2 19  1  0  0  0  0
  2 23  1  0  0  0  0
  3 23  1  0  0  0  0
  3 24  1  0  0  0  0
  4  5  1  0  0  0  0
  4  9  1  0  0  0  0
  4 10  1  0  0  0  0
  5 12  2  0  0  0  0
  6 10  2  0  0  0  0
  6 20  1  0  0  0  0
  7 16  1  0  0  0  0
  7 20  2  0  0  0  0
  8 16  1  0  0  0  0
  8 36  1  0  0  0  0
  8 37  1  0  0  0  0
  9 13  1  0  0  0  0
  9 14  1  0  0  0  0
  9 25  1  0  0  0  0
 10 11  1  0  0  0  0
 11 12  1  0  0  0  0
 11 16  2  0  0  0  0
 12 15  1  0  0  0  0
 13 26  1  0  0  0  0
 13 27  1  0  0  0  0
 13 28  1  0  0  0  0
 14 29  1  0  0  0  0
 14 30  1  0  0  0  0
 14 31  1  0  0  0  0
 15 17  2  0  0  0  0
 15 18  1  0  0  0  0
 17 19  1  0  0  0  0
 17 32  1  0  0  0  0
 18 21  2  0  0  0  0
 18 33  1  0  0  0  0
 19 22  2  0  0  0  0
 20 34  1  0  0  0  0
 21 22  1  0  0  0  0
 21 35  1  0  0  0  0
 23 38  1  0  0  0  0
 23 39  1  0  0  0  0
 24 40  1  0  0  0  0
 24 41  1  0  0  0  0
 24 42  1  0  0  0  0
M  END
> <PUBCHEM_COMPOUND_CID>
24905336

> <PUBCHEM_CONFORMER_RMSD>
0.8

> <PUBCHEM_CONFORMER_DIVERSEORDER>
1
17
16
8
3
20
9
11
6
19
18
13
5
15
14
10
2
4
12
7

> <PUBCHEM_MMFF94_PARTIAL_CHARGES>
27
1 -0.11
10 0.11
12 0.23
15 0.05
16 0.41
17 -0.15
18 -0.15
19 0.08
2 -0.36
20 0.47
21 -0.15
22 0.11
23 0.56
24 0.28
3 -0.56
32 0.15
33 0.15
34 0.15
35 0.15
36 0.4
37 0.4
4 0.31
5 -0.71
6 -0.57
7 -0.62
8 -0.9
9 0.26

> <PUBCHEM_EFFECTIVE_ROTOR_COUNT>
5

> <PUBCHEM_PHARMACOPHORE_FEATURES>
12
1 1 hydrophobe
1 2 acceptor
1 3 acceptor
1 5 acceptor
1 8 cation
1 8 donor
3 4 6 10 cation
3 6 7 20 cation
3 9 13 14 hydrophobe
5 4 5 10 11 12 rings
6 15 17 18 19 21 22 rings
6 6 7 10 11 16 20 rings

> <PUBCHEM_HEAVY_ATOM_COUNT>
24

> <PUBCHEM_ATOM_DEF_STEREO_COUNT>
0

> <PUBCHEM_ATOM_UDEF_STEREO_COUNT>
0

> <PUBCHEM_BOND_DEF_STEREO_COUNT>
0

> <PUBCHEM_BOND_UDEF_STEREO_COUNT>
0

> <PUBCHEM_ISOTOPIC_ATOM_COUNT>
0

> <PUBCHEM_COMPONENT_COUNT>
1

> <PUBCHEM_CACTVS_TAUTO_COUNT>
5

> <PUBCHEM_CONFORMER_ID>
017C067800000001

> <PUBCHEM_MMFF94_ENERGY>
67.0338

> <PUBCHEM_FEATURE_SELFOVERLAP>
61.211

> <PUBCHEM_SHAPE_FINGERPRINT>
10319926 262 17846780694049472258
11049842 53 18127434296766383326
11545043 162 17632029614698149156
11725454 13 16557884737654955216
12107183 9 18190175677058109840
12236239 1 18114751562835612637
12403259 327 17916850349531295528
12403259 415 16702031893277974340
12422481 6 18192424178511101898
12549972 3 16987744323256302358
12553582 1 17983018044289299847
12623949 98 14348370075469127361
12633257 1 18271236136939819168
12788726 201 18267029551359711699
13009979 54 18334573564186703818
13140716 1 17981913873106992291
13533116 47 17895755217971935667
13583140 156 17202748376513481306
13726171 33 17843990227875211224
13911987 19 16082790355330319772
14178342 30 18343585127033291191
14294032 229 18342189830595326049
14420673 8 18125999369948032058
14739800 52 18128245886925537408
15537594 2 17895479138028146826
15842332 3 18188215415171124252
16752209 62 18271251628839181695
173720 79 18408324372388840041
17780758 139 18198318720751321986
17818456 19 18337388215206888400
1813 80 17749384807457838838
20510252 161 17916883437975278185
20554085 129 17845653621532240049
20600515 1 17988921141814560816
20645477 70 16443334434066280488
21033648 29 16558754516051413528
21065201 7 18059590116942618174
212916 134 18059576836956804553
21756936 100 17245873524404593980
23557571 272 17631751446609184741
23559900 14 17917448483988901980
23598288 3 18040712520043295349
23598291 2 18113614595172373268
25147074 1 18260831522339768262
312423 11 18186519938424287714
3886686 26 18126001568417490611
495365 180 16773239478959713732
5265222 85 17629223747519666628
57527295 17 16270818718790029517
633830 44 17388286638821777628
7064713 232 18342449310205367338
7615 1 18188772871877419101
77492 1 18114750454792111413
7970288 3 17386270005573961082
9849439 229 17913506640183020401
9862522 239 18262235517754492677
9981440 41 16558458687278019363

> <PUBCHEM_SHAPE_MULTIPOLES>
463.21
10.42
3.05
2.17
5.86
1.44
-0.81
-0.72
-4.26
-2.19
0.46
2.04
-0.18
-4.54

> <PUBCHEM_SHAPE_SELFOVERLAP>
983.649

> <PUBCHEM_SHAPE_VOLUME>
267.6

> <PUBCHEM_COORDINATE_TYPE>
2
5
10

$$$$
