44299145
  -OEChem-10062121573D

 63 70  0     1  0  0  0  0  0999 V2000
   -0.9682    1.8635    1.8439 O   0  0  0  0  0  0  0  0  0  0  0  0
   -3.7925    1.4791   -0.5499 O   0  0  0  0  0  0  0  0  0  0  0  0
    2.9020   -4.0357   -0.5238 O   0  0  0  0  0  0  0  0  0  0  0  0
    4.5793   -2.4606   -0.4358 O   0  0  0  0  0  0  0  0  0  0  0  0
   -1.5452   -0.1152    0.6948 N   0  0  0  0  0  0  0  0  0  0  0  0
    0.9663    1.5355    0.6114 N   0  0  0  0  0  0  0  0  0  0  0  0
   -1.1981    1.6361   -1.8041 N   0  0  0  0  0  0  0  0  0  0  0  0
   -2.0397    1.1681    1.1991 C   0  0  2  0  0  0  0  0  0  0  0  0
   -2.7035    2.0840    0.1318 C   0  0  1  0  0  0  0  0  0  0  0  0
   -1.7225    2.6542   -0.8961 C   0  0  1  0  0  0  0  0  0  0  0  0
   -0.0265    2.4980    1.0089 C   0  0  1  0  0  0  0  0  0  0  0  0
   -0.6001    3.3442   -0.1314 C   0  0  0  0  0  0  0  0  0  0  0  0
   -0.2701   -0.5923    0.4608 C   0  0  0  0  0  0  0  0  0  0  0  0
    0.9227    0.1861    0.4304 C   0  0  0  0  0  0  0  0  0  0  0  0
   -0.0552   -1.9915    0.1635 C   0  0  0  0  0  0  0  0  0  0  0  0
    2.1442   -0.5477    0.1425 C   0  0  0  0  0  0  0  0  0  0  0  0
   -3.0052    0.9700    2.3925 C   0  0  0  0  0  0  0  0  0  0  0  0
   -2.3092   -1.2759    0.4401 C   0  0  0  0  0  0  0  0  0  0  0  0
    2.3217    1.8142    0.4248 C   0  0  0  0  0  0  0  0  0  0  0  0
   -1.4534   -2.3885    0.1742 C   0  0  0  0  0  0  0  0  0  0  0  0
    1.1331   -2.6777   -0.0742 C   0  0  0  0  0  0  0  0  0  0  0  0
    3.0431    0.6129    0.1605 C   0  0  0  0  0  0  0  0  0  0  0  0
    2.2719   -1.9167   -0.0765 C   0  0  0  0  0  0  0  0  0  0  0  0
    1.4640   -4.0856   -0.3717 C   0  0  0  0  0  0  0  0  0  0  0  0
   -3.7081   -1.4769    0.4241 C   0  0  0  0  0  0  0  0  0  0  0  0
    2.9807    3.0609    0.4754 C   0  0  0  0  0  0  0  0  0  0  0  0
    0.0269    2.1076   -2.4495 C   0  0  0  0  0  0  0  0  0  0  0  0
   -2.2003    1.2809   -2.8087 C   0  0  0  0  0  0  0  0  0  0  0  0
   -2.0401   -3.6590   -0.0641 C   0  0  0  0  0  0  0  0  0  0  0  0
    3.4090   -2.7708   -0.3592 C   0  0  0  0  0  0  0  0  0  0  0  0
    4.4415    0.7298   -0.0467 C   0  0  0  0  0  0  0  0  0  0  0  0
   -4.7394    2.4463   -0.9848 C   0  0  0  0  0  0  0  0  0  0  0  0
   -4.2459   -2.7436    0.1793 C   0  0  0  0  0  0  0  0  0  0  0  0
   -3.4224   -3.8274   -0.0563 C   0  0  0  0  0  0  0  0  0  0  0  0
    4.3576    3.1225    0.2661 C   0  0  0  0  0  0  0  0  0  0  0  0
    5.0816    1.9711    0.0089 C   0  0  0  0  0  0  0  0  0  0  0  0
   -3.0902    2.9479    0.6961 H   0  0  0  0  0  0  0  0  0  0  0  0
   -2.2083    3.4403   -1.4889 H   0  0  0  0  0  0  0  0  0  0  0  0
    0.4963    3.1901    1.6802 H   0  0  0  0  0  0  0  0  0  0  0  0
    0.1774    3.8052   -0.7478 H   0  0  0  0  0  0  0  0  0  0  0  0
   -1.0727    4.2122    0.3559 H   0  0  0  0  0  0  0  0  0  0  0  0
   -2.6119    0.2307    3.1010 H   0  0  0  0  0  0  0  0  0  0  0  0
   -4.0107    0.6667    2.0994 H   0  0  0  0  0  0  0  0  0  0  0  0
   -3.1159    1.9050    2.9573 H   0  0  0  0  0  0  0  0  0  0  0  0
    1.2178   -4.7573    0.4546 H   0  0  0  0  0  0  0  0  0  0  0  0
    1.0219   -4.4317   -1.3096 H   0  0  0  0  0  0  0  0  0  0  0  0
   -4.4026   -0.6617    0.5860 H   0  0  0  0  0  0  0  0  0  0  0  0
    2.4313    3.9771    0.6722 H   0  0  0  0  0  0  0  0  0  0  0  0
    0.3422    1.3805   -3.2095 H   0  0  0  0  0  0  0  0  0  0  0  0
    0.8989    2.1892   -1.8079 H   0  0  0  0  0  0  0  0  0  0  0  0
   -0.1241    3.0605   -2.9723 H   0  0  0  0  0  0  0  0  0  0  0  0
   -1.7362    0.6996   -3.6162 H   0  0  0  0  0  0  0  0  0  0  0  0
   -2.6685    2.1528   -3.2788 H   0  0  0  0  0  0  0  0  0  0  0  0
   -2.9658    0.6063   -2.4218 H   0  0  0  0  0  0  0  0  0  0  0  0
   -1.4101   -4.5215   -0.2674 H   0  0  0  0  0  0  0  0  0  0  0  0
    5.0484   -0.1436   -0.2564 H   0  0  0  0  0  0  0  0  0  0  0  0
   -5.5516    1.9143   -1.4886 H   0  0  0  0  0  0  0  0  0  0  0  0
   -4.3142    3.1571   -1.6967 H   0  0  0  0  0  0  0  0  0  0  0  0
   -5.1671    2.9788   -0.1294 H   0  0  0  0  0  0  0  0  0  0  0  0
   -5.3249   -2.8736    0.1731 H   0  0  0  0  0  0  0  0  0  0  0  0
   -3.8500   -4.8075   -0.2452 H   0  0  0  0  0  0  0  0  0  0  0  0
    4.8641    4.0830    0.3048 H   0  0  0  0  0  0  0  0  0  0  0  0
    6.1542    2.0302   -0.1539 H   0  0  0  0  0  0  0  0  0  0  0  0
  1  8  1  0  0  0  0
  1 11  1  0  0  0  0
  2  9  1  0  0  0  0
  2 32  1  0  0  0  0
  3 24  1  0  0  0  0
  3 30  1  0  0  0  0
  4 30  2  0  0  0  0
  5  8  1  0  0  0  0
  5 13  1  0  0  0  0
  5 18  1  0  0  0  0
  6 11  1  0  0  0  0
  6 14  1  0  0  0  0
  6 19  1  0  0  0  0
  7 10  1  0  0  0  0
  7 27  1  0  0  0  0
  7 28  1  0  0  0  0
  8  9  1  0  0  0  0
  8 17  1  0  0  0  0
  9 10  1  0  0  0  0
  9 37  1  0  0  0  0
 10 12  1  0  0  0  0
 10 38  1  0  0  0  0
 11 12  1  0  0  0  0
 11 39  1  0  0  0  0
 12 40  1  0  0  0  0
 12 41  1  0  0  0  0
 13 14  2  0  0  0  0
 13 15  1  0  0  0  0
 14 16  1  0  0  0  0
 15 20  1  0  0  0  0
 15 21  2  0  0  0  0
 16 22  1  0  0  0  0
 16 23  2  0  0  0  0
 17 42  1  0  0  0  0
 17 43  1  0  0  0  0
 17 44  1  0  0  0  0
 18 20  1  0  0  0  0
 18 25  2  0  0  0  0
 19 22  1  0  0  0  0
 19 26  2  0  0  0  0
 20 29  2  0  0  0  0
 21 23  1  0  0  0  0
 21 24  1  0  0  0  0
 22 31  2  0  0  0  0
 23 30  1  0  0  0  0
 24 45  1  0  0  0  0
 24 46  1  0  0  0  0
 25 33  1  0  0  0  0
 25 47  1  0  0  0  0
 26 35  1  0  0  0  0
 26 48  1  0  0  0  0
 27 49  1  0  0  0  0
 27 50  1  0  0  0  0
 27 51  1  0  0  0  0
 28 52  1  0  0  0  0
 28 53  1  0  0  0  0
 28 54  1  0  0  0  0
 29 34  1  0  0  0  0
 29 55  1  0  0  0  0
 31 36  1  0  0  0  0
 31 56  1  0  0  0  0
 32 57  1  0  0  0  0
 32 58  1  0  0  0  0
 32 59  1  0  0  0  0
 33 34  2  0  0  0  0
 33 60  1  0  0  0  0
 34 61  1  0  0  0  0
 35 36  2  0  0  0  0
 35 62  1  0  0  0  0
 36 63  1  0  0  0  0
M  END
> <PUBCHEM_COMPOUND_CID>
44299145

> <PUBCHEM_CONFORMER_RMSD>
0.8

> <PUBCHEM_CONFORMER_DIVERSEORDER>
1
2

> <PUBCHEM_MMFF94_PARTIAL_CHARGES>
40
1 -0.56
10 0.27
11 0.54
13 -0.05
14 -0.05
15 -0.01
16 -0.01
18 -0.15
19 -0.15
2 -0.56
21 -0.14
23 0.09
24 0.42
25 -0.15
26 -0.15
27 0.27
28 0.27
29 -0.15
3 -0.43
30 0.63
31 -0.15
32 0.28
33 -0.15
34 -0.15
35 -0.15
36 -0.15
4 -0.57
47 0.15
48 0.15
5 -0.04
55 0.15
56 0.15
6 -0.04
60 0.15
61 0.15
62 0.15
63 0.15
7 -0.81
8 0.54
9 0.28

> <PUBCHEM_EFFECTIVE_ROTOR_COUNT>
3.2

> <PUBCHEM_PHARMACOPHORE_FEATURES>
14
1 1 acceptor
1 2 acceptor
1 4 acceptor
1 5 cation
1 6 cation
1 7 cation
5 3 21 23 24 30 rings
5 5 13 15 18 20 rings
5 6 14 16 19 22 rings
6 1 8 9 10 11 12 rings
6 13 14 15 16 21 23 rings
6 18 20 25 29 33 34 rings
6 19 22 26 31 35 36 rings
7 1 5 6 8 11 13 14 rings

> <PUBCHEM_HEAVY_ATOM_COUNT>
36

> <PUBCHEM_ATOM_DEF_STEREO_COUNT>
3

> <PUBCHEM_ATOM_UDEF_STEREO_COUNT>
1

> <PUBCHEM_BOND_DEF_STEREO_COUNT>
0

> <PUBCHEM_BOND_UDEF_STEREO_COUNT>
0

> <PUBCHEM_ISOTOPIC_ATOM_COUNT>
0

> <PUBCHEM_COMPONENT_COUNT>
1

> <PUBCHEM_CACTVS_TAUTO_COUNT>
1

> <PUBCHEM_CONFORMER_ID>
02A3F38900000001

> <PUBCHEM_MMFF94_ENERGY>
164.9286

> <PUBCHEM_FEATURE_SELFOVERLAP>
72.209

> <PUBCHEM_SHAPE_FINGERPRINT>
10290309 65 18053373581970023320
10930396 42 17399195718557991754
1100329 8 18196660592185561858
11513181 2 16689369088949948086
11578080 2 18261115140542382221
12156800 1 18188790455531142839
13140716 1 18340504273777285170
140371 6 17972610054304195707
14223421 5 18411140246735927250
14790565 3 17908715264317758609
14840074 17 17463140376538672860
14955137 171 17615135815868983443
15131766 46 12933448840711051775
15324884 4 17896617097897396465
15439362 3 18266734684601495608
15484559 13 17327149080811758415
19311894 1 17619632376056083095
19591789 44 18268996560729236474
20600515 1 17405156604054594756
20739085 24 17471032727164159811
20764821 26 18410291367945873318
20775438 99 17909225253641383087
23559900 14 18341608162540692314
238 59 17539377978656013341
3027735 51 18268422619406099335
3380486 145 18335717052222325385
350125 39 18411704322466593818
469060 322 18115874181371687825
484989 97 18336829685402386607

> <PUBCHEM_SHAPE_MULTIPOLES>
702.44
8.12
5.82
1.53
3.61
3.94
0.59
-0.39
-0.09
-0.09
1.03
-1.21
-1.44
1.25

> <PUBCHEM_SHAPE_SELFOVERLAP>
1617.524

> <PUBCHEM_SHAPE_VOLUME>
360.5

> <PUBCHEM_COORDINATE_TYPE>
2
5
10

$$$$
