24905296
  -OEChem-10052115143D

 49 52  0     0  0  0  0  0  0999 V2000
    3.9441    0.1278   -2.1266 O   0  0  0  0  0  0  0  0  0  0  0  0
    5.2687    0.2013    0.3157 O   0  0  0  0  0  0  0  0  0  0  0  0
   -2.2955    0.7892    0.0907 N   0  0  0  0  0  0  0  0  0  0  0  0
   -1.0145    1.2015    0.1190 N   0  0  0  0  0  0  0  0  0  0  0  0
   -3.5799   -1.2632    0.0880 N   0  0  0  0  0  0  0  0  0  0  0  0
   -2.1381   -3.2296    0.1579 N   0  0  0  0  0  0  0  0  0  0  0  0
    0.2434   -3.0812    0.2213 N   0  0  0  0  0  0  0  0  0  0  0  0
   -3.4075    1.8132    0.0447 C   0  0  0  0  0  0  0  0  0  0  0  0
   -4.3856    1.7500    1.2363 C   0  0  0  0  0  0  0  0  0  0  0  0
   -4.2795    1.6808   -1.2168 C   0  0  0  0  0  0  0  0  0  0  0  0
   -5.7497    1.4287    0.6364 C   0  0  0  0  0  0  0  0  0  0  0  0
   -5.6844    2.0356   -0.7539 C   0  0  0  0  0  0  0  0  0  0  0  0
   -2.4323   -0.5670    0.1082 C   0  0  0  0  0  0  0  0  0  0  0  0
   -1.1476   -1.0798    0.1510 C   0  0  0  0  0  0  0  0  0  0  0  0
   -0.3204    0.0587    0.1557 C   0  0  0  0  0  0  0  0  0  0  0  0
    1.1198    0.0963    0.1939 C   0  0  0  0  0  0  0  0  0  0  0  0
   -1.0201   -2.4646    0.1762 C   0  0  0  0  0  0  0  0  0  0  0  0
   -3.3315   -2.5904    0.1155 C   0  0  0  0  0  0  0  0  0  0  0  0
    1.8489    0.0948   -0.9952 C   0  0  0  0  0  0  0  0  0  0  0  0
    1.7846    0.1333    1.4196 C   0  0  0  0  0  0  0  0  0  0  0  0
    3.2429    0.1304   -0.9587 C   0  0  0  0  0  0  0  0  0  0  0  0
    3.1785    0.1686    1.4561 C   0  0  0  0  0  0  0  0  0  0  0  0
    3.9077    0.1673    0.2670 C   0  0  0  0  0  0  0  0  0  0  0  0
    5.8609    0.8692    1.4281 C   0  0  0  0  0  0  0  0  0  0  0  0
    3.1891    0.0891   -3.3359 C   0  0  0  0  0  0  0  0  0  0  0  0
    7.1980    1.4399    1.0057 C   0  0  0  0  0  0  0  0  0  0  0  0
   -2.8953    2.7843    0.0481 H   0  0  0  0  0  0  0  0  0  0  0  0
   -4.4258    2.7354    1.7171 H   0  0  0  0  0  0  0  0  0  0  0  0
   -4.0989    1.0246    2.0042 H   0  0  0  0  0  0  0  0  0  0  0  0
   -4.2690    0.6661   -1.6289 H   0  0  0  0  0  0  0  0  0  0  0  0
   -3.9375    2.3525   -2.0111 H   0  0  0  0  0  0  0  0  0  0  0  0
   -6.5698    1.8401    1.2319 H   0  0  0  0  0  0  0  0  0  0  0  0
   -5.8898    0.3437    0.5707 H   0  0  0  0  0  0  0  0  0  0  0  0
   -6.4543    1.6364   -1.4202 H   0  0  0  0  0  0  0  0  0  0  0  0
   -5.8043    3.1242   -0.7015 H   0  0  0  0  0  0  0  0  0  0  0  0
   -4.2057   -3.2324    0.1019 H   0  0  0  0  0  0  0  0  0  0  0  0
    1.2802    0.0643   -1.9194 H   0  0  0  0  0  0  0  0  0  0  0  0
    1.2304    0.1278    2.3553 H   0  0  0  0  0  0  0  0  0  0  0  0
    1.0937   -2.5376    0.2354 H   0  0  0  0  0  0  0  0  0  0  0  0
    0.2911   -4.0912    0.2384 H   0  0  0  0  0  0  0  0  0  0  0  0
    3.6549    0.1665    2.4319 H   0  0  0  0  0  0  0  0  0  0  0  0
    5.2441    1.7063    1.7786 H   0  0  0  0  0  0  0  0  0  0  0  0
    6.0062    0.1522    2.2436 H   0  0  0  0  0  0  0  0  0  0  0  0
    3.9064    0.0931   -4.1633 H   0  0  0  0  0  0  0  0  0  0  0  0
    2.5662    0.9826   -3.4521 H   0  0  0  0  0  0  0  0  0  0  0  0
    2.6113   -0.8376   -3.4219 H   0  0  0  0  0  0  0  0  0  0  0  0
    7.8590    0.6456    0.6434 H   0  0  0  0  0  0  0  0  0  0  0  0
    7.0716    2.1490    0.1809 H   0  0  0  0  0  0  0  0  0  0  0  0
    7.6865    1.9518    1.8396 H   0  0  0  0  0  0  0  0  0  0  0  0
  1 21  1  0  0  0  0
  1 25  1  0  0  0  0
  2 23  1  0  0  0  0
  2 24  1  0  0  0  0
  3  4  1  0  0  0  0
  3  8  1  0  0  0  0
  3 13  1  0  0  0  0
  4 15  2  0  0  0  0
  5 13  2  0  0  0  0
  5 18  1  0  0  0  0
  6 17  1  0  0  0  0
  6 18  2  0  0  0  0
  7 17  1  0  0  0  0
  7 39  1  0  0  0  0
  7 40  1  0  0  0  0
  8  9  1  0  0  0  0
  8 10  1  0  0  0  0
  8 27  1  0  0  0  0
  9 11  1  0  0  0  0
  9 28  1  0  0  0  0
  9 29  1  0  0  0  0
 10 12  1  0  0  0  0
 10 30  1  0  0  0  0
 10 31  1  0  0  0  0
 11 12  1  0  0  0  0
 11 32  1  0  0  0  0
 11 33  1  0  0  0  0
 12 34  1  0  0  0  0
 12 35  1  0  0  0  0
 13 14  1  0  0  0  0
 14 15  1  0  0  0  0
 14 17  2  0  0  0  0
 15 16  1  0  0  0  0
 16 19  2  0  0  0  0
 16 20  1  0  0  0  0
 18 36  1  0  0  0  0
 19 21  1  0  0  0  0
 19 37  1  0  0  0  0
 20 22  2  0  0  0  0
 20 38  1  0  0  0  0
 21 23  2  0  0  0  0
 22 23  1  0  0  0  0
 22 41  1  0  0  0  0
 24 26  1  0  0  0  0
 24 42  1  0  0  0  0
 24 43  1  0  0  0  0
 25 44  1  0  0  0  0
 25 45  1  0  0  0  0
 25 46  1  0  0  0  0
 26 47  1  0  0  0  0
 26 48  1  0  0  0  0
 26 49  1  0  0  0  0
M  END
> <PUBCHEM_COMPOUND_CID>
24905296

> <PUBCHEM_CONFORMER_RMSD>
0.8

> <PUBCHEM_CONFORMER_DIVERSEORDER>
3
24
29
15
12
1
28
8
31
6
26
20
5
30
19
7
32
10
17
14
21
23
27
13
11
4
2
9
18
25
22
16

> <PUBCHEM_MMFF94_PARTIAL_CHARGES>
26
1 -0.36
13 0.11
15 0.23
16 0.05
17 0.41
18 0.47
19 -0.15
2 -0.36
20 -0.15
21 0.08
22 -0.15
23 0.08
24 0.28
25 0.28
3 0.31
36 0.15
37 0.15
38 0.15
39 0.4
4 -0.71
40 0.4
41 0.15
5 -0.57
6 -0.62
7 -0.9
8 0.26

> <PUBCHEM_EFFECTIVE_ROTOR_COUNT>
6

> <PUBCHEM_PHARMACOPHORE_FEATURES>
11
1 1 acceptor
1 2 acceptor
1 4 acceptor
1 7 cation
1 7 donor
3 3 5 13 cation
3 5 6 18 cation
5 3 4 13 14 15 rings
5 8 9 10 11 12 rings
6 16 19 20 21 22 23 rings
6 5 6 13 14 17 18 rings

> <PUBCHEM_HEAVY_ATOM_COUNT>
26

> <PUBCHEM_ATOM_DEF_STEREO_COUNT>
0

> <PUBCHEM_ATOM_UDEF_STEREO_COUNT>
0

> <PUBCHEM_BOND_DEF_STEREO_COUNT>
0

> <PUBCHEM_BOND_UDEF_STEREO_COUNT>
0

> <PUBCHEM_ISOTOPIC_ATOM_COUNT>
0

> <PUBCHEM_COMPONENT_COUNT>
1

> <PUBCHEM_CACTVS_TAUTO_COUNT>
5

> <PUBCHEM_CONFORMER_ID>
017C065000000003

> <PUBCHEM_MMFF94_ENERGY>
79.9937

> <PUBCHEM_FEATURE_SELFOVERLAP>
56.105

> <PUBCHEM_SHAPE_FINGERPRINT>
10411042 1 17761769964079203587
105312 117 18335133151571155077
10835480 77 18202275932014485944
10906281 52 17846506941313541224
11049842 53 18189917360909420158
11331351 85 17531520981119506956
11796584 16 18341619188102276678
12236239 1 17748824129130355304
12403259 118 17240485763068014333
12616971 3 17022905666088923132
12788726 201 17752502107195189155
13140716 1 18338799017864721257
14950920 106 15430044257467354661
15021287 119 16805318903220908044
15131766 46 15215299852653446695
16752209 62 18336547222029452851
173720 79 18040716948665779951
17980427 23 17967811713052078444
20554085 129 18057298657416759273
20600515 1 18341901796211992012
20645477 70 16271649971208406716
21236236 1 18340480153847280515
21424621 283 18129667387718832089
21859007 373 17606668124720318300
22122407 14 16443641094927284461
22149856 69 18191888738625084721
22182313 1 17846232080190587030
22224240 67 18411986828662879753
23557571 272 18200879586126660256
23559900 14 18200049369270038862
25147074 1 17603872264308699100
3472631 163 18410291436982114404
5104073 3 18408319969499100234
57527295 17 16773792563542177995
7226269 152 18272647939475790401

> <PUBCHEM_SHAPE_MULTIPOLES>
498.42
13.93
2.67
1.74
9.37
2.43
1.6
-10.26
-2.22
-4.05
-0.36
2.6
-0.44
0.95

> <PUBCHEM_SHAPE_SELFOVERLAP>
1084.366

> <PUBCHEM_SHAPE_VOLUME>
273.1

> <PUBCHEM_COORDINATE_TYPE>
2
5
10

$$$$
