49830620
  -OEChem-10062121533D

 72 77  0     0  0  0  0  0  0999 V2000
    7.5055   -2.4009    0.5108 O   0  0  0  0  0  0  0  0  0  0  0  0
   10.1225   -2.8659   -0.3621 O   0  0  0  0  0  0  0  0  0  0  0  0
   -6.4500   -0.7541   -1.4898 O   0  0  0  0  0  0  0  0  0  0  0  0
    3.1048    1.2345    0.2039 N   0  0  0  0  0  0  0  0  0  0  0  0
    2.0112    0.5308   -0.1436 N   0  0  0  0  0  0  0  0  0  0  0  0
    3.7546    3.5080    0.7249 N   0  0  0  0  0  0  0  0  0  0  0  0
    1.8617    5.0407    0.5892 N   0  0  0  0  0  0  0  0  0  0  0  0
   -0.3396    4.3237    0.0087 N   0  0  0  0  0  0  0  0  0  0  0  0
   -4.2157   -0.0462   -1.5561 N   0  0  0  0  0  0  0  0  0  0  0  0
   -5.4003   -0.6287    0.5151 N   0  0  0  0  0  0  0  0  0  0  0  0
    4.4362    0.5219    0.3569 C   0  0  0  0  0  0  0  0  0  0  0  0
    4.3997   -0.5228    1.4866 C   0  0  0  0  0  0  0  0  0  0  0  0
    4.9024   -0.1105   -0.9664 C   0  0  0  0  0  0  0  0  0  0  0  0
    6.2063   -1.8508    0.3216 C   0  0  0  0  0  0  0  0  0  0  0  0
    5.7456   -1.2271    1.6369 C   0  0  0  0  0  0  0  0  0  0  0  0
    6.2453   -0.8182   -0.8034 C   0  0  0  0  0  0  0  0  0  0  0  0
    2.8640    2.5648    0.3791 C   0  0  0  0  0  0  0  0  0  0  0  0
    1.5151    2.7452    0.1279 C   0  0  0  0  0  0  0  0  0  0  0  0
    1.0466    1.4563   -0.1882 C   0  0  0  0  0  0  0  0  0  0  0  0
    7.7912   -3.4023   -0.4551 C   0  0  0  0  0  0  0  0  0  0  0  0
    1.0178    4.0389    0.2433 C   0  0  0  0  0  0  0  0  0  0  0  0
   -0.2980    1.0732   -0.5378 C   0  0  0  0  0  0  0  0  0  0  0  0
    9.1922   -3.9325   -0.2186 C   0  0  0  0  0  0  0  0  0  0  0  0
    3.1591    4.7176    0.8055 C   0  0  0  0  0  0  0  0  0  0  0  0
   -0.7018    1.0836   -1.8730 C   0  0  0  0  0  0  0  0  0  0  0  0
   -1.1954    0.6908    0.4592 C   0  0  0  0  0  0  0  0  0  0  0  0
   -2.0030    0.7122   -2.2112 C   0  0  0  0  0  0  0  0  0  0  0  0
   -2.4967    0.3194    0.1211 C   0  0  0  0  0  0  0  0  0  0  0  0
   -2.9005    0.3301   -1.2140 C   0  0  0  0  0  0  0  0  0  0  0  0
   11.4544   -3.3021   -0.1287 C   0  0  0  0  0  0  0  0  0  0  0  0
   -5.3176   -0.4694   -0.7876 C   0  0  0  0  0  0  0  0  0  0  0  0
   -7.3391   -1.1326   -0.5248 C   0  0  0  0  0  0  0  0  0  0  0  0
   -6.6934   -1.0547    0.7003 C   0  0  0  0  0  0  0  0  0  0  0  0
   -8.6588   -1.5300   -0.7004 C   0  0  0  0  0  0  0  0  0  0  0  0
   -7.4005   -1.3961    1.8620 C   0  0  0  0  0  0  0  0  0  0  0  0
   -8.7358   -1.8024    1.7250 C   0  0  0  0  0  0  0  0  0  0  0  0
   -9.3500   -1.8673    0.4682 C   0  0  0  0  0  0  0  0  0  0  0  0
   -9.3241   -1.6062   -2.0294 C   0  0  0  0  0  0  0  0  0  0  0  0
   -9.5162   -2.1708    2.9440 C   0  0  0  0  0  0  0  0  0  0  0  0
    5.1444    1.3132    0.6350 H   0  0  0  0  0  0  0  0  0  0  0  0
    4.1302   -0.0390    2.4331 H   0  0  0  0  0  0  0  0  0  0  0  0
    3.6210   -1.2696    1.2858 H   0  0  0  0  0  0  0  0  0  0  0  0
    4.1557   -0.8303   -1.3253 H   0  0  0  0  0  0  0  0  0  0  0  0
    4.9859    0.6631   -1.7394 H   0  0  0  0  0  0  0  0  0  0  0  0
    5.4978   -2.6502    0.0641 H   0  0  0  0  0  0  0  0  0  0  0  0
    6.5008   -0.5148    1.9941 H   0  0  0  0  0  0  0  0  0  0  0  0
    5.6795   -2.0013    2.4109 H   0  0  0  0  0  0  0  0  0  0  0  0
    6.5122   -1.2820   -1.7584 H   0  0  0  0  0  0  0  0  0  0  0  0
    7.0335   -0.0813   -0.6011 H   0  0  0  0  0  0  0  0  0  0  0  0
    7.0703   -4.2228   -0.3678 H   0  0  0  0  0  0  0  0  0  0  0  0
    7.7418   -2.9836   -1.4646 H   0  0  0  0  0  0  0  0  0  0  0  0
    9.4201   -4.7245   -0.9404 H   0  0  0  0  0  0  0  0  0  0  0  0
    9.2683   -4.3352    0.7982 H   0  0  0  0  0  0  0  0  0  0  0  0
    3.8070    5.5429    1.0806 H   0  0  0  0  0  0  0  0  0  0  0  0
   -0.0142    1.3793   -2.6620 H   0  0  0  0  0  0  0  0  0  0  0  0
   -0.8957    0.6777    1.5045 H   0  0  0  0  0  0  0  0  0  0  0  0
   -0.6595    5.2782    0.1039 H   0  0  0  0  0  0  0  0  0  0  0  0
   -0.9920    3.5984   -0.2502 H   0  0  0  0  0  0  0  0  0  0  0  0
   -2.3036    0.7253   -3.2557 H   0  0  0  0  0  0  0  0  0  0  0  0
   -3.1554    0.0310    0.9314 H   0  0  0  0  0  0  0  0  0  0  0  0
   11.5614   -3.6796    0.8928 H   0  0  0  0  0  0  0  0  0  0  0  0
   11.7365   -4.0765   -0.8487 H   0  0  0  0  0  0  0  0  0  0  0  0
   12.1238   -2.4471   -0.2561 H   0  0  0  0  0  0  0  0  0  0  0  0
   -4.3847    0.0035   -2.5588 H   0  0  0  0  0  0  0  0  0  0  0  0
   -6.9217   -1.3466    2.8347 H   0  0  0  0  0  0  0  0  0  0  0  0
  -10.3879   -2.1887    0.3957 H   0  0  0  0  0  0  0  0  0  0  0  0
   -9.6530   -2.6310   -2.2301 H   0  0  0  0  0  0  0  0  0  0  0  0
   -8.6507   -1.3058   -2.8383 H   0  0  0  0  0  0  0  0  0  0  0  0
  -10.1953   -0.9437   -2.0555 H   0  0  0  0  0  0  0  0  0  0  0  0
   -9.1174   -1.6777    3.8371 H   0  0  0  0  0  0  0  0  0  0  0  0
   -9.4810   -3.2537    3.0988 H   0  0  0  0  0  0  0  0  0  0  0  0
  -10.5625   -1.8611    2.8479 H   0  0  0  0  0  0  0  0  0  0  0  0
  1 14  1  0  0  0  0
  1 20  1  0  0  0  0
  2 23  1  0  0  0  0
  2 30  1  0  0  0  0
  3 31  1  0  0  0  0
  3 32  1  0  0  0  0
  4  5  1  0  0  0  0
  4 11  1  0  0  0  0
  4 17  1  0  0  0  0
  5 19  2  0  0  0  0
  6 17  2  0  0  0  0
  6 24  1  0  0  0  0
  7 21  1  0  0  0  0
  7 24  2  0  0  0  0
  8 21  1  0  0  0  0
  8 57  1  0  0  0  0
  8 58  1  0  0  0  0
  9 29  1  0  0  0  0
  9 31  1  0  0  0  0
  9 64  1  0  0  0  0
 10 31  2  0  0  0  0
 10 33  1  0  0  0  0
 11 12  1  0  0  0  0
 11 13  1  0  0  0  0
 11 40  1  0  0  0  0
 12 15  1  0  0  0  0
 12 41  1  0  0  0  0
 12 42  1  0  0  0  0
 13 16  1  0  0  0  0
 13 43  1  0  0  0  0
 13 44  1  0  0  0  0
 14 15  1  0  0  0  0
 14 16  1  0  0  0  0
 14 45  1  0  0  0  0
 15 46  1  0  0  0  0
 15 47  1  0  0  0  0
 16 48  1  0  0  0  0
 16 49  1  0  0  0  0
 17 18  1  0  0  0  0
 18 19  1  0  0  0  0
 18 21  2  0  0  0  0
 19 22  1  0  0  0  0
 20 23  1  0  0  0  0
 20 50  1  0  0  0  0
 20 51  1  0  0  0  0
 22 25  2  0  0  0  0
 22 26  1  0  0  0  0
 23 52  1  0  0  0  0
 23 53  1  0  0  0  0
 24 54  1  0  0  0  0
 25 27  1  0  0  0  0
 25 55  1  0  0  0  0
 26 28  2  0  0  0  0
 26 56  1  0  0  0  0
 27 29  2  0  0  0  0
 27 59  1  0  0  0  0
 28 29  1  0  0  0  0
 28 60  1  0  0  0  0
 30 61  1  0  0  0  0
 30 62  1  0  0  0  0
 30 63  1  0  0  0  0
 32 33  1  0  0  0  0
 32 34  2  0  0  0  0
 33 35  2  0  0  0  0
 34 37  1  0  0  0  0
 34 38  1  0  0  0  0
 35 36  1  0  0  0  0
 35 65  1  0  0  0  0
 36 37  2  0  0  0  0
 36 39  1  0  0  0  0
 37 66  1  0  0  0  0
 38 67  1  0  0  0  0
 38 68  1  0  0  0  0
 38 69  1  0  0  0  0
 39 70  1  0  0  0  0
 39 71  1  0  0  0  0
 39 72  1  0  0  0  0
M  END
> <PUBCHEM_COMPOUND_CID>
49830620

> <PUBCHEM_CONFORMER_RMSD>
1

> <PUBCHEM_CONFORMER_DIVERSEORDER>
1
46
51
16
77
64
43
62
58
38
81
32
84
60
95
22
92
27
85
54
44
65
26
80
70
90
89
97
94
79
19
66
75
9
87
41
21
93
7
33
72
50
34
13
10
29
3
71
61
78
15
86
36
68
83
48
8
74
11
52
20
4
18
35
31
69
6
53
73
47
56
42
23
37
45
91
39
40
12
28
59
24
25
63
55
88
96
82
49
76
14
5
17
57
67
30
2

> <PUBCHEM_MMFF94_PARTIAL_CHARGES>
44
1 -0.56
10 -0.57
11 0.26
14 0.28
17 0.11
19 0.23
2 -0.56
20 0.28
21 0.41
22 0.05
23 0.28
24 0.47
25 -0.15
26 -0.15
27 -0.15
28 -0.15
29 0.1
3 -0.28
30 0.28
31 0.56
32 0.14
33 0.23
34 -0.14
35 -0.15
36 -0.14
37 -0.15
38 0.14
39 0.14
4 0.31
5 -0.71
54 0.15
55 0.15
56 0.15
57 0.4
58 0.4
59 0.15
6 -0.57
60 0.15
64 0.4
65 0.15
66 0.15
7 -0.62
8 -0.9
9 -0.58

> <PUBCHEM_EFFECTIVE_ROTOR_COUNT>
9.2

> <PUBCHEM_PHARMACOPHORE_FEATURES>
15
1 1 acceptor
1 2 acceptor
1 5 acceptor
1 8 cation
1 8 donor
1 9 donor
3 4 6 17 cation
3 6 7 24 cation
3 9 10 31 cation
5 3 10 31 32 33 rings
5 4 5 17 18 19 rings
6 11 12 13 14 15 16 rings
6 22 25 26 27 28 29 rings
6 32 33 34 35 36 37 rings
6 6 7 17 18 21 24 rings

> <PUBCHEM_HEAVY_ATOM_COUNT>
39

> <PUBCHEM_ATOM_DEF_STEREO_COUNT>
0

> <PUBCHEM_ATOM_UDEF_STEREO_COUNT>
0

> <PUBCHEM_BOND_DEF_STEREO_COUNT>
0

> <PUBCHEM_BOND_UDEF_STEREO_COUNT>
0

> <PUBCHEM_ISOTOPIC_ATOM_COUNT>
0

> <PUBCHEM_COMPONENT_COUNT>
1

> <PUBCHEM_CACTVS_TAUTO_COUNT>
24

> <PUBCHEM_CONFORMER_ID>
02F85ADC00000001

> <PUBCHEM_MMFF94_ENERGY>
101.0566

> <PUBCHEM_FEATURE_SELFOVERLAP>
76.526

> <PUBCHEM_SHAPE_FINGERPRINT>
10258705 36 18041006184828802475
10411042 1 18340765958394248628
10533779 47 18335148643982324907
11411753 29 18334287665283616989
11607047 191 10952043452036883236
11672396 167 18271516581583685359
117089 54 18337673018914615490
11761917 87 18335427880970097483
12013929 2 18188201028191057021
12133447 93 16660629771067058407
12342043 65 18186791491900373317
13673619 4 18186514410754074301
13692115 27 18340765953956960500
13782708 43 18113888386616342717
14359421 15 17895189949000848170
14400156 188 18408323293877912602
14965480 1 17531541966056429515
1577012 14 17416699132212872561
19246450 95 17845376549060557241
19301679 30 18272370824465774284
19315958 150 18117560841268330857
20505436 4 17484804067126242452
20771845 65 18131347519138499952
20982279 24 18114475513262816939
21130935 74 18195809798710408179
21781055 127 16271388394504019645
21927370 108 18342456989891858912
22033318 11 18058753376358670361
23523787 8 15574720179820652264
23569943 247 18412541007866236431
23729398 52 18338801225969060620
25242607 90 18201427070203983434
255183 451 18409726262383346468
4330586 98 17458921383462100646
4403749 210 9511160976474274133
4461854 278 17774997978299090086
54039377 194 18410011001688072718
57527295 17 17605548843579741736
58083652 198 18271240638814832865
58260988 647 18408042922433100849
6058803 2 17126750304579516125
636775 8 17748830696035831951
6691757 9 15697702741003706613
9831232 110 17241036695818505107
9962374 69 18270951466095730431

> <PUBCHEM_SHAPE_MULTIPOLES>
750.13
36.08
5.48
1.81
7.01
5.86
-0.2
-60.33
-5.09
-14.16
-1.45
4.72
-0.75
3.15

> <PUBCHEM_SHAPE_SELFOVERLAP>
1640.742

> <PUBCHEM_SHAPE_VOLUME>
406.2

> <PUBCHEM_COORDINATE_TYPE>
2
5
10

$$$$
