11221493
  -OEChem-10052120433D

 42 46  0     0  0  0  0  0  0999 V2000
    7.1340   -1.7915   -0.4287 O   0  0  0  0  0  0  0  0  0  0  0  0
    4.9708   -1.9788   -1.3356 N   0  0  0  0  0  0  0  0  0  0  0  0
   -2.2690    1.0923   -0.9943 N   0  0  0  0  0  0  0  0  0  0  0  0
   -4.5866    0.8403   -1.0982 N   0  0  0  0  0  0  0  0  0  0  0  0
   -3.5431   -0.3505    0.4617 N   0  0  0  0  0  0  0  0  0  0  0  0
    4.0015   -0.2955   -0.1269 C   0  0  0  0  0  0  0  0  0  0  0  0
    3.1717    0.6461    0.4513 C   0  0  0  0  0  0  0  0  0  0  0  0
    3.6912   -1.3166   -1.1661 C   0  0  0  0  0  0  0  0  0  0  0  0
    5.3422   -0.3798    0.2520 C   0  0  0  0  0  0  0  0  0  0  0  0
    1.7792    0.7596    0.0803 C   0  0  0  0  0  0  0  0  0  0  0  0
    5.9676   -1.4575   -0.5203 C   0  0  0  0  0  0  0  0  0  0  0  0
    3.7157    1.5001    1.4168 C   0  0  0  0  0  0  0  0  0  0  0  0
    5.9044    0.4503    1.2017 C   0  0  0  0  0  0  0  0  0  0  0  0
    5.0698    1.4028    1.7883 C   0  0  0  0  0  0  0  0  0  0  0  0
    1.4006    1.6044   -0.9638 C   0  0  0  0  0  0  0  0  0  0  0  0
    0.8113    0.0256    0.7673 C   0  0  0  0  0  0  0  0  0  0  0  0
   -0.9100    0.9811   -0.6330 C   0  0  0  0  0  0  0  0  0  0  0  0
    0.0567    1.7151   -1.3203 C   0  0  0  0  0  0  0  0  0  0  0  0
   -0.5327    0.1362    0.4108 C   0  0  0  0  0  0  0  0  0  0  0  0
   -3.4406    0.4900   -0.4963 C   0  0  0  0  0  0  0  0  0  0  0  0
   -5.5724    0.1393   -0.4523 C   0  0  0  0  0  0  0  0  0  0  0  0
   -4.8958   -0.5964    0.5167 C   0  0  0  0  0  0  0  0  0  0  0  0
   -6.9558    0.0872   -0.6271 C   0  0  0  0  0  0  0  0  0  0  0  0
   -5.6266   -1.4395    1.3708 C   0  0  0  0  0  0  0  0  0  0  0  0
   -7.6674   -0.7569    0.2318 C   0  0  0  0  0  0  0  0  0  0  0  0
   -7.0166   -1.5076    1.2135 C   0  0  0  0  0  0  0  0  0  0  0  0
    2.9595   -2.0544   -0.8271 H   0  0  0  0  0  0  0  0  0  0  0  0
    3.4000   -0.8717   -2.1209 H   0  0  0  0  0  0  0  0  0  0  0  0
    5.1235   -2.7449   -1.9839 H   0  0  0  0  0  0  0  0  0  0  0  0
    3.0983    2.2564    1.8978 H   0  0  0  0  0  0  0  0  0  0  0  0
    6.9473    0.3731    1.4857 H   0  0  0  0  0  0  0  0  0  0  0  0
    5.4680    2.0781    2.5408 H   0  0  0  0  0  0  0  0  0  0  0  0
    2.1414    2.1835   -1.5103 H   0  0  0  0  0  0  0  0  0  0  0  0
    1.0891   -0.6376    1.5833 H   0  0  0  0  0  0  0  0  0  0  0  0
   -0.2224    2.3772   -2.1360 H   0  0  0  0  0  0  0  0  0  0  0  0
   -1.2429   -0.4552    0.9759 H   0  0  0  0  0  0  0  0  0  0  0  0
   -2.3978    1.7419   -1.7691 H   0  0  0  0  0  0  0  0  0  0  0  0
   -4.7105    1.4855   -1.8678 H   0  0  0  0  0  0  0  0  0  0  0  0
   -7.4587    0.6708   -1.3899 H   0  0  0  0  0  0  0  0  0  0  0  0
   -5.1302   -2.0267    2.1368 H   0  0  0  0  0  0  0  0  0  0  0  0
   -8.7477   -0.8295    0.1325 H   0  0  0  0  0  0  0  0  0  0  0  0
   -7.5968   -2.1549    1.8661 H   0  0  0  0  0  0  0  0  0  0  0  0
  1 11  2  0  0  0  0
  2  8  1  0  0  0  0
  2 11  1  0  0  0  0
  2 29  1  0  0  0  0
  3 17  1  0  0  0  0
  3 20  1  0  0  0  0
  3 37  1  0  0  0  0
  4 20  1  0  0  0  0
  4 21  1  0  0  0  0
  4 38  1  0  0  0  0
  5 20  2  0  0  0  0
  5 22  1  0  0  0  0
  6  7  2  0  0  0  0
  6  8  1  0  0  0  0
  6  9  1  0  0  0  0
  7 10  1  0  0  0  0
  7 12  1  0  0  0  0
  8 27  1  0  0  0  0
  8 28  1  0  0  0  0
  9 11  1  0  0  0  0
  9 13  2  0  0  0  0
 10 15  2  0  0  0  0
 10 16  1  0  0  0  0
 12 14  2  0  0  0  0
 12 30  1  0  0  0  0
 13 14  1  0  0  0  0
 13 31  1  0  0  0  0
 14 32  1  0  0  0  0
 15 18  1  0  0  0  0
 15 33  1  0  0  0  0
 16 19  2  0  0  0  0
 16 34  1  0  0  0  0
 17 18  2  0  0  0  0
 17 19  1  0  0  0  0
 18 35  1  0  0  0  0
 19 36  1  0  0  0  0
 21 22  1  0  0  0  0
 21 23  2  0  0  0  0
 22 24  2  0  0  0  0
 23 25  1  0  0  0  0
 23 39  1  0  0  0  0
 24 26  1  0  0  0  0
 24 40  1  0  0  0  0
 25 26  2  0  0  0  0
 25 41  1  0  0  0  0
 26 42  1  0  0  0  0
M  END
> <PUBCHEM_COMPOUND_CID>
11221493

> <PUBCHEM_CONFORMER_RMSD>
0.8

> <PUBCHEM_CONFORMER_DIVERSEORDER>
1
4
5
2
3
7
6

> <PUBCHEM_MMFF94_PARTIAL_CHARGES>
38
1 -0.57
11 0.54
12 -0.15
13 -0.15
14 -0.15
15 -0.15
16 -0.15
17 0.1
18 -0.15
19 -0.15
2 -0.73
20 0.27
21 -0.15
22 0.23
23 -0.15
24 -0.15
25 -0.15
26 -0.15
29 0.37
3 -0.58
30 0.15
31 0.15
32 0.15
33 0.15
34 0.15
35 0.15
36 0.15
37 0.4
38 0.27
39 0.15
4 0.03
40 0.15
41 0.15
42 0.15
5 -0.57
6 -0.14
8 0.44
9 0.09

> <PUBCHEM_EFFECTIVE_ROTOR_COUNT>
3.4

> <PUBCHEM_PHARMACOPHORE_FEATURES>
10
1 1 acceptor
1 2 donor
1 3 donor
1 4 donor
4 3 4 5 20 cation
5 2 6 8 9 11 rings
5 4 5 20 21 22 rings
6 10 15 16 17 18 19 rings
6 21 22 23 24 25 26 rings
6 6 7 9 12 13 14 rings

> <PUBCHEM_HEAVY_ATOM_COUNT>
26

> <PUBCHEM_ATOM_DEF_STEREO_COUNT>
0

> <PUBCHEM_ATOM_UDEF_STEREO_COUNT>
0

> <PUBCHEM_BOND_DEF_STEREO_COUNT>
0

> <PUBCHEM_BOND_UDEF_STEREO_COUNT>
0

> <PUBCHEM_ISOTOPIC_ATOM_COUNT>
0

> <PUBCHEM_COMPONENT_COUNT>
1

> <PUBCHEM_CACTVS_TAUTO_COUNT>
4

> <PUBCHEM_CONFORMER_ID>
00AB39F500000001

> <PUBCHEM_MMFF94_ENERGY>
82.7485

> <PUBCHEM_FEATURE_SELFOVERLAP>
50.992

> <PUBCHEM_SHAPE_FINGERPRINT>
10165383 225 18129658734246109576
10299344 5 16702582739897342214
10316853 100 18408046221247967710
11524674 6 18342175601131395095
11963148 33 17676480666133111203
12236239 1 15769771373207583720
12342043 65 18268991995337334604
12516196 113 18335136505624348549
12596602 18 17203607120827816963
12730499 353 18343861126686081946
13533116 47 17775567533478649034
13560911 43 15195286465291550115
13668630 136 18114183042752661203
13673619 4 18343023255607427732
13685833 64 18411983554837243207
13782708 43 18339077078247284430
13862211 1 17313379032739026401
14028597 1 16199878275826866971
14068700 675 16805321093923560221
14117953 113 17822003234436519511
14123256 34 17895199921998200329
14251757 52 13542454411145814818
14251764 18 15913324710931193389
14294032 229 16734945628206864109
14341114 176 18060136552530956464
14344974 204 18118409681942691755
14556957 393 14129060271007468751
14767858 380 15430037651564586009
14856354 85 16515408474082935875
15131766 46 16985724692422448953
15183329 4 16081090368087073743
15348495 7 18200027486179465953
15352257 5 18409731759393001859
15419008 91 18115567340798922613
15510794 2 18409161112788977779
1577012 14 15626221346993501609
16990350 14 16383642703841793301
17844677 252 18060702766712465209
18222031 100 17603586326581841132
20028762 73 18113616828503217931
20281389 69 14764349344834586153
20554085 129 12103846743657430125
21150785 3 16226052197369980982
21267235 1 17748831834966393857
21623969 137 18202284688561258822
21781051 124 17023197045318546763
220451 1 17418371432508948068
22956985 138 16663714849669870562
23016692 55 17458063767985587733
2303208 19 18410011022408132053
23035841 295 17313100861319887113
23081809 10 15841263826848427837
23198884 109 12468631725901760973
23522609 53 15864925209756844037
23559900 14 17459471238129029213
23569943 247 18046063748694250906
239999 70 18335136501703544464
249057 3 12324240560233643920
3004659 81 17240205447246728605
3178227 256 17917709085841427798
335352 9 17385435528604840983
3383291 50 18114747135700783667
34797466 226 18187366558093465476
3663271 9 16845287284973057855
397830 11 18195239142963075233
4340502 62 17846212285081614110
465052 167 18342178847809465022
504579 68 14996003228960861402
5104073 3 18059289847405571168
5718773 13 18190459351739122938
59755656 215 18113335297723554739
6009941 240 18269273465872118521
6700243 42 17314514716703059846
86090 222 18269292195934671446

> <PUBCHEM_SHAPE_MULTIPOLES>
509.27
21.8
1.74
1.42
18.75
0.25
0.22
10.5
3.09
-1.49
-0.29
-0.91
-0.12
3.26

> <PUBCHEM_SHAPE_SELFOVERLAP>
1161.05

> <PUBCHEM_SHAPE_VOLUME>
265.9

> <PUBCHEM_COORDINATE_TYPE>
2
5
10

$$$$
