49830300
  -OEChem-10052115183D

 49 52  0     1  0  0  0  0  0999 V2000
    0.3813    5.2074    0.2585 Cl  0  0  0  0  0  0  0  0  0  0  0  0
   -3.8885   -1.6973    1.7151 N   0  0  0  0  0  0  0  0  0  0  0  0
   -1.8739    1.0627   -1.0978 N   0  0  0  0  0  0  0  0  0  0  0  0
    0.3037    0.8049   -0.3351 N   0  0  0  0  0  0  0  0  0  0  0  0
   -0.7380    2.9757   -0.4352 N   0  0  0  0  0  0  0  0  0  0  0  0
    4.3503   -0.2167    1.4509 N   0  0  0  0  0  0  0  0  0  0  0  0
    4.7386   -2.2603    0.2358 N   0  0  0  0  0  0  0  0  0  0  0  0
   -3.6821   -0.8658    0.5476 C   0  0  1  0  0  0  0  0  0  0  0  0
   -2.0213   -0.3747   -1.3393 C   0  0  1  0  0  0  0  0  0  0  0  0
   -2.2801   -1.1187   -0.0212 C   0  0  0  0  0  0  0  0  0  0  0  0
   -4.7662   -1.1711   -0.4880 C   0  0  0  0  0  0  0  0  0  0  0  0
   -3.1395   -0.6582   -2.3528 C   0  0  0  0  0  0  0  0  0  0  0  0
   -4.5389   -0.4078   -1.7903 C   0  0  0  0  0  0  0  0  0  0  0  0
   -2.8304   -1.4675    2.6970 C   0  0  0  0  0  0  0  0  0  0  0  0
   -5.2002   -1.4324    2.3030 C   0  0  0  0  0  0  0  0  0  0  0  0
   -0.7195    1.6393   -0.6003 C   0  0  0  0  0  0  0  0  0  0  0  0
    1.4142    1.4010    0.1464 C   0  0  0  0  0  0  0  0  0  0  0  0
    2.5152    0.5283    0.4371 C   0  0  0  0  0  0  0  0  0  0  0  0
    0.4045    3.5052    0.0492 C   0  0  0  0  0  0  0  0  0  0  0  0
    1.5232    2.7597    0.3611 C   0  0  0  0  0  0  0  0  0  0  0  0
    2.8916   -0.6991   -0.1698 C   0  0  0  0  0  0  0  0  0  0  0  0
    3.4306    0.7995    1.4309 C   0  0  0  0  0  0  0  0  0  0  0  0
    4.0388   -1.1373    0.4851 C   0  0  0  0  0  0  0  0  0  0  0  0
    2.3930   -1.5031   -1.2077 C   0  0  0  0  0  0  0  0  0  0  0  0
    3.0796   -2.6783   -1.5077 C   0  0  0  0  0  0  0  0  0  0  0  0
    4.2139   -2.9952   -0.7724 C   0  0  0  0  0  0  0  0  0  0  0  0
   -3.7544    0.1981    0.8168 H   0  0  0  0  0  0  0  0  0  0  0  0
   -1.0928   -0.7536   -1.7857 H   0  0  0  0  0  0  0  0  0  0  0  0
   -1.4982   -0.8260    0.6862 H   0  0  0  0  0  0  0  0  0  0  0  0
   -2.1503   -2.1942   -0.2080 H   0  0  0  0  0  0  0  0  0  0  0  0
   -4.7942   -2.2470   -0.7071 H   0  0  0  0  0  0  0  0  0  0  0  0
   -5.7632   -0.8856   -0.1356 H   0  0  0  0  0  0  0  0  0  0  0  0
   -2.9972   -0.0457   -3.2514 H   0  0  0  0  0  0  0  0  0  0  0  0
   -3.0723   -1.7067   -2.6704 H   0  0  0  0  0  0  0  0  0  0  0  0
   -4.6850    0.6650   -1.6169 H   0  0  0  0  0  0  0  0  0  0  0  0
   -5.2888   -0.7117   -2.5297 H   0  0  0  0  0  0  0  0  0  0  0  0
   -2.6614    1.6774   -1.2659 H   0  0  0  0  0  0  0  0  0  0  0  0
   -1.8832   -1.9278    2.3983 H   0  0  0  0  0  0  0  0  0  0  0  0
   -2.6726   -0.4035    2.9095 H   0  0  0  0  0  0  0  0  0  0  0  0
   -3.0777   -1.9561    3.6479 H   0  0  0  0  0  0  0  0  0  0  0  0
   -5.3750   -0.3652    2.4828 H   0  0  0  0  0  0  0  0  0  0  0  0
   -6.0153   -1.8369    1.6952 H   0  0  0  0  0  0  0  0  0  0  0  0
   -5.2989   -1.9476    3.2667 H   0  0  0  0  0  0  0  0  0  0  0  0
    2.4222    3.2352    0.7352 H   0  0  0  0  0  0  0  0  0  0  0  0
    3.5207    1.6128    2.1386 H   0  0  0  0  0  0  0  0  0  0  0  0
    5.1366   -0.2796    2.0826 H   0  0  0  0  0  0  0  0  0  0  0  0
    1.5064   -1.2308   -1.7705 H   0  0  0  0  0  0  0  0  0  0  0  0
    2.7339   -3.3317   -2.3016 H   0  0  0  0  0  0  0  0  0  0  0  0
    4.7617   -3.9076   -0.9932 H   0  0  0  0  0  0  0  0  0  0  0  0
  1 19  1  0  0  0  0
  2  8  1  0  0  0  0
  2 14  1  0  0  0  0
  2 15  1  0  0  0  0
  3  9  1  0  0  0  0
  3 16  1  0  0  0  0
  3 37  1  0  0  0  0
  4 16  2  0  0  0  0
  4 17  1  0  0  0  0
  5 16  1  0  0  0  0
  5 19  2  0  0  0  0
  6 22  1  0  0  0  0
  6 23  1  0  0  0  0
  6 46  1  0  0  0  0
  7 23  1  0  0  0  0
  7 26  2  0  0  0  0
  8 10  1  0  0  0  0
  8 11  1  0  0  0  0
  8 27  1  0  0  0  0
  9 10  1  0  0  0  0
  9 12  1  0  0  0  0
  9 28  1  0  0  0  0
 10 29  1  0  0  0  0
 10 30  1  0  0  0  0
 11 13  1  0  0  0  0
 11 31  1  0  0  0  0
 11 32  1  0  0  0  0
 12 13  1  0  0  0  0
 12 33  1  0  0  0  0
 12 34  1  0  0  0  0
 13 35  1  0  0  0  0
 13 36  1  0  0  0  0
 14 38  1  0  0  0  0
 14 39  1  0  0  0  0
 14 40  1  0  0  0  0
 15 41  1  0  0  0  0
 15 42  1  0  0  0  0
 15 43  1  0  0  0  0
 17 18  1  0  0  0  0
 17 20  2  0  0  0  0
 18 21  1  0  0  0  0
 18 22  2  0  0  0  0
 19 20  1  0  0  0  0
 20 44  1  0  0  0  0
 21 23  2  0  0  0  0
 21 24  1  0  0  0  0
 22 45  1  0  0  0  0
 24 25  2  0  0  0  0
 24 47  1  0  0  0  0
 25 26  1  0  0  0  0
 25 48  1  0  0  0  0
 26 49  1  0  0  0  0
M  END
> <PUBCHEM_COMPOUND_CID>
49830300

> <PUBCHEM_CONFORMER_RMSD>
0.8

> <PUBCHEM_CONFORMER_DIVERSEORDER>
1
78
202
115
342
183
196
311
130
42
277
132
203
155
129
112
126
233
86
226
37
15
173
241
261
222
131
219
312
337
227
12
272
39
84
236
21
244
71
306
213
166
26
101
10
216
6
144
313
81
111
187
27
267
266
31
326
332
168
156
211
232
72
105
181
128
64
133
85
262
184
143
319
208
33
59
325
260
152
265
102
333
201
295
19
154
93
100
344
339
95
142
235
186
58
210
67
340
89
192
107
16
23
113
34
127
68
259
299
249
45
38
13
171
163
302
206
197
36
204
194
119
289
30
256
304
237
76
90
264
179
117
239
207
14
198
82
212
274
268
161
136
190
200
137
286
52
40
229
147
158
149
296
32
162
176
75
317
263
8
251
46
189
191
316
141
103
140
9
234
336
238
343
231
116
245
178
221
11
248
109
298
275
215
252
269
7
182
148
331
323
254
57
258
314
334
66
98
17
328
347
91
53
150
297
54
120
253
188
341
330
324
246
243
139
294
123
273
80
124
96
303
151
321
164
195
106
301
104
283
157
290
315
92
292
170
74
307
285
87
65
167
63
44
308
108
193
159
153
97
281
288
2
276
300
287
199
110
99
305
338
125
320
209
220
180
250
22
257
270
122
49
121
169
4
35
255
247
225
242
218
61
88
329
48
134
205
279
94
293
41
29
62
345
217
175
60
114
174
335
280
291
223
47
278
145
214
25
118
185
322
271
240
318
146
228
56
20
51
79
282
18
327
3
309
224
73
172
346
310
77
165
177
160
24
69
50
83
5
284
230
138
70
43
55
135
28

> <PUBCHEM_MMFF94_PARTIAL_CHARGES>
28
1 -0.18
14 0.27
15 0.27
16 0.72
17 0.36
18 -0.05
19 0.49
2 -0.81
20 -0.15
22 -0.3
23 0.11
24 -0.15
25 -0.15
26 0.16
3 -0.87
37 0.4
4 -0.62
44 0.15
45 0.15
46 0.27
47 0.15
48 0.15
49 0.15
5 -0.62
6 0.03
7 -0.57
8 0.27
9 0.37

> <PUBCHEM_EFFECTIVE_ROTOR_COUNT>
5.2

> <PUBCHEM_PHARMACOPHORE_FEATURES>
11
1 2 cation
1 3 donor
1 5 acceptor
1 6 cation
1 6 donor
1 7 acceptor
4 3 4 5 16 cation
5 6 18 21 22 23 rings
6 4 5 16 17 19 20 rings
6 7 21 23 24 25 26 rings
6 8 9 10 11 12 13 rings

> <PUBCHEM_HEAVY_ATOM_COUNT>
26

> <PUBCHEM_ATOM_DEF_STEREO_COUNT>
0

> <PUBCHEM_ATOM_UDEF_STEREO_COUNT>
2

> <PUBCHEM_BOND_DEF_STEREO_COUNT>
0

> <PUBCHEM_BOND_UDEF_STEREO_COUNT>
0

> <PUBCHEM_ISOTOPIC_ATOM_COUNT>
0

> <PUBCHEM_COMPONENT_COUNT>
1

> <PUBCHEM_CACTVS_TAUTO_COUNT>
16

> <PUBCHEM_CONFORMER_ID>
02F8599C00000001

> <PUBCHEM_MMFF94_ENERGY>
61.9556

> <PUBCHEM_FEATURE_SELFOVERLAP>
55.934

> <PUBCHEM_SHAPE_FINGERPRINT>
10369192 42 17027978988712563044
10764073 3 16979592376950162585
10928967 22 18129668487162278046
11595378 159 15339117952964320451
11991303 11 17757845428679119573
12363563 72 18409445869157710438
12422481 6 17914923975427061441
12553582 1 18341335573582324252
12596602 18 16486681584442671587
12623949 98 17537744444123374347
12788726 201 17976527322054586673
13544653 18 18410848850437257244
14363568 33 18194129731530880348
14790565 3 17763733687440531412
14844126 61 17910374114069102942
14957384 54 11527650939792771646
15081414 286 18338520845284922232
15361156 5 18340770313089699492
15842332 3 17558270097093562245
15927050 60 17186428587817184512
1813 80 18272662241679598901
19315092 285 16268788075347648871
20600515 1 17895462657611170780
20645477 70 18192976322115517725
20693207 138 17531240708036975045
20739085 24 18131364015500669942
21796203 349 18266752440211900160
22440779 20 17549028443969050506
23175994 123 18335135402054662751
23559900 14 17313934359658182437
3380486 145 18270943713743162180
3459 39 9188890248786559067
3737641 26 17987810605385199518
38695281 34 17833825354561330388
5309563 4 18412261722763612895
59025328 239 17771306951411539053
613672 6 18336815433967604290
81228 2 18193831548883695716
9709674 26 17983841299652527932

> <PUBCHEM_SHAPE_MULTIPOLES>
507.05
10.26
4.56
2.06
3.96
6.72
-0.66
-10.25
-2.45
-3.76
0.27
2.85
-1.32
2.13

> <PUBCHEM_SHAPE_SELFOVERLAP>
1092.576

> <PUBCHEM_SHAPE_VOLUME>
280.4

> <PUBCHEM_COORDINATE_TYPE>
2
5
10

$$$$
