49830636
  -OEChem-10062121553D

 63 68  0     0  0  0  0  0  0999 V2000
   -3.4510    0.2957   -2.2679 S   0  0  0  0  0  0  0  0  0  0  0  0
   -8.7880    0.6954   -0.1890 O   0  0  0  0  0  0  0  0  0  0  0  0
    7.1121    0.3094   -0.1111 N   0  0  0  0  0  0  0  0  0  0  0  0
    8.7280    2.7030    0.0215 N   0  0  0  0  0  0  0  0  0  0  0  0
    0.3045   -2.1783    1.8467 N   0  0  0  0  0  0  0  0  0  0  0  0
   -0.9765   -1.9298    1.4703 N   0  0  0  0  0  0  0  0  0  0  0  0
  -10.6671    2.0612    0.3204 C   0  0  0  0  0  0  0  0  0  0  0  0
  -11.9011    2.2202    1.1594 C   0  0  0  0  0  0  0  0  0  0  0  0
  -10.5528    2.5278    1.7420 C   0  0  0  0  0  0  0  0  0  0  0  0
  -10.2012    0.6916   -0.0364 C   0  0  0  0  0  0  0  0  0  0  0  0
    6.5857    1.6093   -0.5446 C   0  0  0  0  0  0  0  0  0  0  0  0
    8.5672    0.2578   -0.2985 C   0  0  0  0  0  0  0  0  0  0  0  0
    6.4572   -0.7819   -0.8297 C   0  0  0  0  0  0  0  0  0  0  0  0
    7.2728    2.7541    0.2080 C   0  0  0  0  0  0  0  0  0  0  0  0
    9.2551    1.4027    0.4531 C   0  0  0  0  0  0  0  0  0  0  0  0
    2.7060   -0.8832   -0.4929 C   0  0  0  0  0  0  0  0  0  0  0  0
    5.0771   -1.0571   -0.2944 C   0  0  0  0  0  0  0  0  0  0  0  0
    1.3484   -0.4930   -1.1091 C   0  0  0  0  0  0  0  0  0  0  0  0
    2.5846   -1.5909    0.7362 C   0  0  0  0  0  0  0  0  0  0  0  0
    0.4851   -1.0852   -0.0491 C   0  0  0  0  0  0  0  0  0  0  0  0
    1.1865   -1.6852    0.9588 C   0  0  0  0  0  0  0  0  0  0  0  0
    3.9599   -0.6146   -1.0119 C   0  0  0  0  0  0  0  0  0  0  0  0
    4.9354   -1.7564    0.9217 C   0  0  0  0  0  0  0  0  0  0  0  0
    3.6738   -2.0324    1.4532 C   0  0  0  0  0  0  0  0  0  0  0  0
   -8.2962   -0.5928   -0.5304 C   0  0  0  0  0  0  0  0  0  0  0  0
   -0.8519   -1.2602    0.3085 C   0  0  0  0  0  0  0  0  0  0  0  0
    9.3822    3.7935    0.7421 C   0  0  0  0  0  0  0  0  0  0  0  0
   -1.9816   -0.7879   -0.4606 C   0  0  0  0  0  0  0  0  0  0  0  0
   -6.8420   -0.5423   -0.6771 C   0  0  0  0  0  0  0  0  0  0  0  0
   -3.3301   -0.9938   -0.0491 C   0  0  0  0  0  0  0  0  0  0  0  0
   -1.9032   -0.0995   -1.6512 C   0  0  0  0  0  0  0  0  0  0  0  0
   -4.2311   -0.4546   -0.9409 C   0  0  0  0  0  0  0  0  0  0  0  0
   -5.6476   -0.5026   -0.7979 C   0  0  0  0  0  0  0  0  0  0  0  0
  -10.4910    2.7836   -0.4667 H   0  0  0  0  0  0  0  0  0  0  0  0
  -12.4116    1.3324    1.5117 H   0  0  0  0  0  0  0  0  0  0  0  0
  -12.5565    3.0539    0.9383 H   0  0  0  0  0  0  0  0  0  0  0  0
  -10.3025    3.5677    1.9123 H   0  0  0  0  0  0  0  0  0  0  0  0
  -10.1570    1.8451    2.4838 H   0  0  0  0  0  0  0  0  0  0  0  0
  -10.4818   -0.0357    0.7355 H   0  0  0  0  0  0  0  0  0  0  0  0
  -10.6702    0.3897   -0.9801 H   0  0  0  0  0  0  0  0  0  0  0  0
    5.5125    1.6828   -0.3369 H   0  0  0  0  0  0  0  0  0  0  0  0
    6.7205    1.7485   -1.6260 H   0  0  0  0  0  0  0  0  0  0  0  0
    8.8258    0.3061   -1.3651 H   0  0  0  0  0  0  0  0  0  0  0  0
    8.9599   -0.6895    0.0909 H   0  0  0  0  0  0  0  0  0  0  0  0
    6.4314   -0.5993   -1.9128 H   0  0  0  0  0  0  0  0  0  0  0  0
    7.0292   -1.7131   -0.7111 H   0  0  0  0  0  0  0  0  0  0  0  0
    7.0122    2.7037    1.2741 H   0  0  0  0  0  0  0  0  0  0  0  0
    6.8832    3.7037   -0.1785 H   0  0  0  0  0  0  0  0  0  0  0  0
   10.3313    1.3524    0.2475 H   0  0  0  0  0  0  0  0  0  0  0  0
    9.1223    1.2658    1.5350 H   0  0  0  0  0  0  0  0  0  0  0  0
    1.2108   -0.9792   -2.0779 H   0  0  0  0  0  0  0  0  0  0  0  0
    1.2498    0.5936   -1.1675 H   0  0  0  0  0  0  0  0  0  0  0  0
    4.0661   -0.0758   -1.9478 H   0  0  0  0  0  0  0  0  0  0  0  0
    5.8177   -2.0910    1.4631 H   0  0  0  0  0  0  0  0  0  0  0  0
    3.5680   -2.5701    2.3881 H   0  0  0  0  0  0  0  0  0  0  0  0
   -8.7527   -0.9223   -1.4707 H   0  0  0  0  0  0  0  0  0  0  0  0
   -8.5641   -1.3082    0.2555 H   0  0  0  0  0  0  0  0  0  0  0  0
    9.0183    4.7631    0.3844 H   0  0  0  0  0  0  0  0  0  0  0  0
   10.4630    3.7782    0.5632 H   0  0  0  0  0  0  0  0  0  0  0  0
    9.2108    3.7383    1.8232 H   0  0  0  0  0  0  0  0  0  0  0  0
    0.4687   -2.6823    2.7099 H   0  0  0  0  0  0  0  0  0  0  0  0
   -3.6340   -1.5102    0.8545 H   0  0  0  0  0  0  0  0  0  0  0  0
   -1.0316    0.2044   -2.2115 H   0  0  0  0  0  0  0  0  0  0  0  0
  1 31  1  0  0  0  0
  1 32  1  0  0  0  0
  2 10  1  0  0  0  0
  2 25  1  0  0  0  0
  3 11  1  0  0  0  0
  3 12  1  0  0  0  0
  3 13  1  0  0  0  0
  4 14  1  0  0  0  0
  4 15  1  0  0  0  0
  4 27  1  0  0  0  0
  5  6  1  0  0  0  0
  5 21  1  0  0  0  0
  5 61  1  0  0  0  0
  6 26  2  0  0  0  0
  7  8  1  0  0  0  0
  7  9  1  0  0  0  0
  7 10  1  0  0  0  0
  7 34  1  0  0  0  0
  8  9  1  0  0  0  0
  8 35  1  0  0  0  0
  8 36  1  0  0  0  0
  9 37  1  0  0  0  0
  9 38  1  0  0  0  0
 10 39  1  0  0  0  0
 10 40  1  0  0  0  0
 11 14  1  0  0  0  0
 11 41  1  0  0  0  0
 11 42  1  0  0  0  0
 12 15  1  0  0  0  0
 12 43  1  0  0  0  0
 12 44  1  0  0  0  0
 13 17  1  0  0  0  0
 13 45  1  0  0  0  0
 13 46  1  0  0  0  0
 14 47  1  0  0  0  0
 14 48  1  0  0  0  0
 15 49  1  0  0  0  0
 15 50  1  0  0  0  0
 16 18  1  0  0  0  0
 16 19  2  0  0  0  0
 16 22  1  0  0  0  0
 17 22  2  0  0  0  0
 17 23  1  0  0  0  0
 18 20  1  0  0  0  0
 18 51  1  0  0  0  0
 18 52  1  0  0  0  0
 19 21  1  0  0  0  0
 19 24  1  0  0  0  0
 20 21  2  0  0  0  0
 20 26  1  0  0  0  0
 22 53  1  0  0  0  0
 23 24  2  0  0  0  0
 23 54  1  0  0  0  0
 24 55  1  0  0  0  0
 25 29  1  0  0  0  0
 25 56  1  0  0  0  0
 25 57  1  0  0  0  0
 26 28  1  0  0  0  0
 27 58  1  0  0  0  0
 27 59  1  0  0  0  0
 27 60  1  0  0  0  0
 28 30  1  0  0  0  0
 28 31  2  0  0  0  0
 29 33  3  0  0  0  0
 30 32  2  0  0  0  0
 30 62  1  0  0  0  0
 31 63  1  0  0  0  0
 32 33  1  0  0  0  0
M  END
> <PUBCHEM_COMPOUND_CID>
49830636

> <PUBCHEM_CONFORMER_RMSD>
1

> <PUBCHEM_CONFORMER_DIVERSEORDER>
1
46
36
34
21
159
144
90
62
80
92
20
63
112
163
129
157
127
27
83
133
47
79
86
40
28
13
35
137
59
77
99
18
23
7
128
125
109
25
84
121
135
147
151
75
6
14
48
123
82
156
111
113
39
106
148
145
105
134
31
98
64
85
73
74
150
19
76
141
117
67
138
164
53
29
162
37
107
100
15
166
2
24
69
158
10
154
165
115
104
26
43
22
118
65
108
16
81
155
110
139
5
56
124
149
130
96
132
51
54
30
131
103
136
55
52
57
97
8
66
160
9
78
114
119
91
71
95
68
93
45
32
70
87
58
142
41
153
122
89
50
102
146
116
17
143
3
60
44
38
11
161
12
33
61
49
72
4
94
42
152
88
140
120
126
101

> <PUBCHEM_MMFF94_PARTIAL_CHARGES>
43
1 -0.08
10 0.38
11 0.27
12 0.27
13 0.41
14 0.27
15 0.27
16 -0.14
17 -0.14
18 0.32
19 0.05
2 -0.56
20 -0.18
21 -0.2
22 -0.15
23 -0.15
24 -0.15
25 0.48
26 0.29
27 0.27
29 -0.2
3 -0.81
30 -0.15
31 -0.11
32 0.06
33 -0.02
34 0.1
35 0.1
36 0.1
37 0.1
38 0.1
4 -0.81
5 0.3
53 0.15
54 0.15
55 0.15
6 -0.71
61 0.27
62 0.15
63 0.15
7 -0.19
8 -0.2
9 -0.2

> <PUBCHEM_EFFECTIVE_ROTOR_COUNT>
8

> <PUBCHEM_PHARMACOPHORE_FEATURES>
10
1 2 acceptor
1 3 cation
1 4 cation
1 5 donor
1 6 acceptor
5 1 28 30 31 32 rings
5 16 18 19 20 21 rings
5 5 6 20 21 26 rings
6 16 17 19 22 23 24 rings
6 3 4 11 12 14 15 rings

> <PUBCHEM_HEAVY_ATOM_COUNT>
33

> <PUBCHEM_ATOM_DEF_STEREO_COUNT>
0

> <PUBCHEM_ATOM_UDEF_STEREO_COUNT>
0

> <PUBCHEM_BOND_DEF_STEREO_COUNT>
0

> <PUBCHEM_BOND_UDEF_STEREO_COUNT>
0

> <PUBCHEM_ISOTOPIC_ATOM_COUNT>
0

> <PUBCHEM_COMPONENT_COUNT>
1

> <PUBCHEM_CACTVS_TAUTO_COUNT>
2

> <PUBCHEM_CONFORMER_ID>
02F85AEC00000001

> <PUBCHEM_MMFF94_ENERGY>
84.5797

> <PUBCHEM_FEATURE_SELFOVERLAP>
51.088

> <PUBCHEM_SHAPE_FINGERPRINT>
10 15 17095516310418246178
10029044 110 18412544340175178873
10533779 47 16370997474102098690
10666366 153 14189576330095357235
10952577 141 18059856165204066239
11181472 205 17916590830607028963
11408170 108 9007067884867018389
11421887 21 18411423947677588748
11534866 41 13912321265979803664
11638347 137 11169911684399686287
11973864 220 17774730758487744113
12013929 94 18340768256829785535
12089408 11 18341608201591608415
12144603 126 18343300362702267701
12498461 61 12035452753209186033
12592606 108 9943811092400053390
12838862 33 17095789002002493631
13383665 225 17060352782032659473
13383668 254 18340782515539999081
13530399 1 18342740694299955593
14040221 8 16702307832352967177
14117953 113 13110963136580947741
14202775 3 8934994889704432813
14216079 64 11527955564853743278
14428016 248 18343584024049557497
14617042 71 18408604785712602501
15198563 99 14764354799955275707
15247644 1 11025798695690724569
15392192 104 13695871407378639274
15840311 113 18408042923176516246
16728433 281 16987450698793312033
19302320 297 16877944984211280844
19315958 150 18339366258907559703
2026 5 9799154936979553500
20501277 279 17748826307074497733
20812841 46 17967524672251432754
21033648 29 18043799005167153432
21095123 293 18343303631378647497
21362267 313 18271243798718629634
21795232 338 18336266860219925091
21895431 317 10809334538505368929
3178227 256 17167870742805235255
335352 9 13686295781776035439
34797466 226 18413106152579400198
4353968 344 11600009826493318139
44389302 135 12179840590225382593
45270241 37 18201723920963239022
474113 269 9151170957013607903
5028188 123 17917705834540525367
59682541 35 16950568758049378847
6204607 403 18336271239968384797
9663363 56 13758067485922361998

> <PUBCHEM_SHAPE_MULTIPOLES>
657.18
41.43
3
1.51
72.04
3.01
0.04
47.85
-8.8
-4.55
-1.55
1.52
-0.27
-2.5

> <PUBCHEM_SHAPE_SELFOVERLAP>
1416.313

> <PUBCHEM_SHAPE_VOLUME>
367.4

> <PUBCHEM_COORDINATE_TYPE>
2
5
10

$$$$
