24905244
  -OEChem-10052115163D

 37 40  0     0  0  0  0  0  0999 V2000
    3.4307   -0.1876    2.6825 F   0  0  0  0  0  0  0  0  0  0  0  0
   -2.5550   -1.0276   -0.0515 N   0  0  0  0  0  0  0  0  0  0  0  0
   -1.2633   -1.3993    0.0200 N   0  0  0  0  0  0  0  0  0  0  0  0
   -3.9001    0.9835   -0.1428 N   0  0  0  0  0  0  0  0  0  0  0  0
    3.9704   -0.2333   -1.8656 N   0  0  0  0  0  0  0  0  0  0  0  0
   -2.5206    2.9945   -0.0911 N   0  0  0  0  0  0  0  0  0  0  0  0
   -0.1380    2.9214    0.0334 N   0  0  0  0  0  0  0  0  0  0  0  0
    5.2083   -0.2223   -1.3437 N   0  0  0  0  0  0  0  0  0  0  0  0
   -3.5851   -2.0382   -0.0953 C   0  0  0  0  0  0  0  0  0  0  0  0
   -1.4659    0.8769   -0.0139 C   0  0  0  0  0  0  0  0  0  0  0  0
   -0.6051   -0.2351    0.0427 C   0  0  0  0  0  0  0  0  0  0  0  0
   -2.7329    0.3237   -0.0747 C   0  0  0  0  0  0  0  0  0  0  0  0
    0.8300   -0.2272    0.1180 C   0  0  0  0  0  0  0  0  0  0  0  0
   -3.5909   -2.8916    1.1755 C   0  0  0  0  0  0  0  0  0  0  0  0
   -3.4585   -2.9175   -1.3418 C   0  0  0  0  0  0  0  0  0  0  0  0
   -1.3809    2.2651   -0.0238 C   0  0  0  0  0  0  0  0  0  0  0  0
    1.5779   -0.2359   -1.0639 C   0  0  0  0  0  0  0  0  0  0  0  0
    2.9683   -0.2283   -0.9331 C   0  0  0  0  0  0  0  0  0  0  0  0
    1.4528   -0.2118    1.3675 C   0  0  0  0  0  0  0  0  0  0  0  0
    3.6141   -0.2129    0.2981 C   0  0  0  0  0  0  0  0  0  0  0  0
    2.8490   -0.2044    1.4764 C   0  0  0  0  0  0  0  0  0  0  0  0
   -3.6926    2.3179   -0.1456 C   0  0  0  0  0  0  0  0  0  0  0  0
    4.9875   -0.2099   -0.0273 C   0  0  0  0  0  0  0  0  0  0  0  0
   -4.5497   -1.5195   -0.1513 H   0  0  0  0  0  0  0  0  0  0  0  0
   -2.6670   -3.4715    1.2786 H   0  0  0  0  0  0  0  0  0  0  0  0
   -4.4299   -3.5954    1.1646 H   0  0  0  0  0  0  0  0  0  0  0  0
   -3.6899   -2.2623    2.0670 H   0  0  0  0  0  0  0  0  0  0  0  0
   -2.5295   -3.4984   -1.3356 H   0  0  0  0  0  0  0  0  0  0  0  0
   -3.4628   -2.3069   -2.2515 H   0  0  0  0  0  0  0  0  0  0  0  0
   -4.2948   -3.6218   -1.4044 H   0  0  0  0  0  0  0  0  0  0  0  0
    1.1090   -0.2475   -2.0429 H   0  0  0  0  0  0  0  0  0  0  0  0
    0.8610   -0.2044    2.2809 H   0  0  0  0  0  0  0  0  0  0  0  0
    3.8769   -0.2439   -2.8736 H   0  0  0  0  0  0  0  0  0  0  0  0
   -4.5851    2.9322   -0.1988 H   0  0  0  0  0  0  0  0  0  0  0  0
    5.8360   -0.1992    0.6422 H   0  0  0  0  0  0  0  0  0  0  0  0
    0.7277    2.4048    0.0842 H   0  0  0  0  0  0  0  0  0  0  0  0
   -0.1213    3.9324    0.0240 H   0  0  0  0  0  0  0  0  0  0  0  0
  1 21  1  0  0  0  0
  2  3  1  0  0  0  0
  2  9  1  0  0  0  0
  2 12  1  0  0  0  0
  3 11  2  0  0  0  0
  4 12  2  0  0  0  0
  4 22  1  0  0  0  0
  5  8  1  0  0  0  0
  5 18  1  0  0  0  0
  5 33  1  0  0  0  0
  6 16  1  0  0  0  0
  6 22  2  0  0  0  0
  7 16  1  0  0  0  0
  7 36  1  0  0  0  0
  7 37  1  0  0  0  0
  8 23  2  0  0  0  0
  9 14  1  0  0  0  0
  9 15  1  0  0  0  0
  9 24  1  0  0  0  0
 10 11  1  0  0  0  0
 10 12  1  0  0  0  0
 10 16  2  0  0  0  0
 11 13  1  0  0  0  0
 13 17  2  0  0  0  0
 13 19  1  0  0  0  0
 14 25  1  0  0  0  0
 14 26  1  0  0  0  0
 14 27  1  0  0  0  0
 15 28  1  0  0  0  0
 15 29  1  0  0  0  0
 15 30  1  0  0  0  0
 17 18  1  0  0  0  0
 17 31  1  0  0  0  0
 18 20  2  0  0  0  0
 19 21  2  0  0  0  0
 19 32  1  0  0  0  0
 20 21  1  0  0  0  0
 20 23  1  0  0  0  0
 22 34  1  0  0  0  0
 23 35  1  0  0  0  0
M  END
> <PUBCHEM_COMPOUND_CID>
24905244

> <PUBCHEM_CONFORMER_RMSD>
0.6

> <PUBCHEM_CONFORMER_DIVERSEORDER>
2
4
5
6
3
1

> <PUBCHEM_MMFF94_PARTIAL_CHARGES>
26
1 -0.19
11 0.23
12 0.11
13 0.05
16 0.41
17 -0.15
18 -0.15
19 -0.15
2 0.31
21 0.19
22 0.47
23 0.14
3 -0.71
31 0.15
32 0.15
33 0.27
34 0.15
35 0.15
36 0.4
37 0.4
4 -0.57
5 0.3
6 -0.62
7 -0.9
8 -0.71
9 0.26

> <PUBCHEM_EFFECTIVE_ROTOR_COUNT>
2

> <PUBCHEM_PHARMACOPHORE_FEATURES>
12
1 3 acceptor
1 5 donor
1 7 cation
1 7 donor
1 8 acceptor
3 2 4 12 cation
3 4 6 22 cation
3 9 14 15 hydrophobe
5 2 3 10 11 12 rings
5 5 8 18 20 23 rings
6 13 17 18 19 20 21 rings
6 4 6 10 12 16 22 rings

> <PUBCHEM_HEAVY_ATOM_COUNT>
23

> <PUBCHEM_ATOM_DEF_STEREO_COUNT>
0

> <PUBCHEM_ATOM_UDEF_STEREO_COUNT>
0

> <PUBCHEM_BOND_DEF_STEREO_COUNT>
0

> <PUBCHEM_BOND_UDEF_STEREO_COUNT>
0

> <PUBCHEM_ISOTOPIC_ATOM_COUNT>
0

> <PUBCHEM_COMPONENT_COUNT>
1

> <PUBCHEM_CACTVS_TAUTO_COUNT>
14

> <PUBCHEM_CONFORMER_ID>
017C061C00000002

> <PUBCHEM_MMFF94_ENERGY>
46.2877

> <PUBCHEM_FEATURE_SELFOVERLAP>
61.266

> <PUBCHEM_SHAPE_FINGERPRINT>
10319926 262 18269815585576442378
10366900 7 17703222906296560820
10411042 1 18194125342327576255
10498660 4 18410291372251467996
11370993 144 16988576696719295883
11640471 11 17605004619398744364
12173636 292 18050842222281399717
12236239 1 17676490514529107532
12363563 72 18194116541712817863
12390115 104 17984994691634905105
12553582 1 18264768938421009979
12616971 3 17095522864480025274
12714826 92 18272656765791695923
12788726 201 18186522133332184483
13009979 54 17823120256018064794
13140716 1 18338800134666676193
13583140 156 17845639383752667622
13631057 29 16734971161449626778
14790565 3 18051421669252242609
15669948 3 18334573508315088457
15806764 133 17846502551724751520
15842332 3 17749379318051583810
15961568 22 18194390320224588016
16752209 62 18336256924989540659
17357779 13 17987215889700292919
1813 80 18126848424583376847
18222031 100 18198900512447000575
20511986 3 17603857871631197332
20691752 17 17385998520474804388
20905425 154 18124038089768552125
21033648 29 17561072601381257362
21065201 7 18341328920868146314
21792961 116 17632308826944422430
23175994 123 16988849358454575504
23402539 116 18333453149153597230
23557571 272 18272374161095960173
23559900 14 18200032829335144262
314173 85 18268991050207613579
474 4 16805903856819547820
6049 1 17775001310459416064
7097593 13 17680968713836168754
7615 1 17676194758902039488
77492 1 17676203542068000736
7808743 9 18337113350206101068
7970288 3 18193562391815765243
81228 2 18411698781979627707
9709674 26 18200318697457036398

> <PUBCHEM_SHAPE_MULTIPOLES>
431.19
9.46
2.93
1.45
7.04
0.78
0.43
-2.87
-1.34
-5.82
-0.16
1.72
-0.6
0.09

> <PUBCHEM_SHAPE_SELFOVERLAP>
969.805

> <PUBCHEM_SHAPE_VOLUME>
230.2

> <PUBCHEM_COORDINATE_TYPE>
2
5
10

$$$$
