49830968
  -OEChem-10062121553D

 30 32  0     0  0  0  0  0  0999 V2000
    2.6968   -1.9090    0.1931 O   0  0  0  0  0  0  0  0  0  0  0  0
    4.2225    0.5857   -0.0550 O   0  0  0  0  0  0  0  0  0  0  0  0
    1.6760   -2.8469    0.2869 N   0  0  0  0  0  0  0  0  0  0  0  0
   -5.6202    0.0952   -0.0156 N   0  0  0  0  0  0  0  0  0  0  0  0
    0.0127    0.4090   -0.0407 C   0  0  0  0  0  0  0  0  0  0  0  0
    0.7774   -0.7609    0.0771 C   0  0  0  0  0  0  0  0  0  0  0  0
   -1.4269    0.3287   -0.0337 C   0  0  0  0  0  0  0  0  0  0  0  0
    2.1580   -0.6654    0.0683 C   0  0  0  0  0  0  0  0  0  0  0  0
    0.6881    1.6317   -0.1627 C   0  0  0  0  0  0  0  0  0  0  0  0
    2.8608    0.5301   -0.0504 C   0  0  0  0  0  0  0  0  0  0  0  0
    2.0858    1.6886   -0.1670 C   0  0  0  0  0  0  0  0  0  0  0  0
    0.5425   -2.1425    0.2155 C   0  0  0  0  0  0  0  0  0  0  0  0
   -2.1581    0.9943    0.9502 C   0  0  0  0  0  0  0  0  0  0  0  0
   -2.0885   -0.4139   -1.0118 C   0  0  0  0  0  0  0  0  0  0  0  0
   -3.5508    0.9169    0.9563 C   0  0  0  0  0  0  0  0  0  0  0  0
   -3.4812   -0.4913   -1.0056 C   0  0  0  0  0  0  0  0  0  0  0  0
   -4.2123    0.1742   -0.0216 C   0  0  0  0  0  0  0  0  0  0  0  0
    4.8173    1.8755   -0.1833 C   0  0  0  0  0  0  0  0  0  0  0  0
    0.1296    2.5609   -0.2612 H   0  0  0  0  0  0  0  0  0  0  0  0
    2.5205    2.6787   -0.2667 H   0  0  0  0  0  0  0  0  0  0  0  0
   -1.6615    1.5745    1.7244 H   0  0  0  0  0  0  0  0  0  0  0  0
   -1.5403   -0.9318   -1.7953 H   0  0  0  0  0  0  0  0  0  0  0  0
   -0.3977   -2.6717    0.2710 H   0  0  0  0  0  0  0  0  0  0  0  0
   -4.1094    1.4389    1.7291 H   0  0  0  0  0  0  0  0  0  0  0  0
   -3.9853   -1.0713   -1.7744 H   0  0  0  0  0  0  0  0  0  0  0  0
    5.9030    1.7362   -0.1682 H   0  0  0  0  0  0  0  0  0  0  0  0
    4.5627    2.5201    0.6647 H   0  0  0  0  0  0  0  0  0  0  0  0
    4.5647    2.3393   -1.1428 H   0  0  0  0  0  0  0  0  0  0  0  0
   -6.1513    0.5780    0.6968 H   0  0  0  0  0  0  0  0  0  0  0  0
   -6.1002   -0.4426   -0.7250 H   0  0  0  0  0  0  0  0  0  0  0  0
  1  3  1  0  0  0  0
  1  8  1  0  0  0  0
  2 10  1  0  0  0  0
  2 18  1  0  0  0  0
  3 12  2  0  0  0  0
  4 17  1  0  0  0  0
  4 29  1  0  0  0  0
  4 30  1  0  0  0  0
  5  6  2  0  0  0  0
  5  7  1  0  0  0  0
  5  9  1  0  0  0  0
  6  8  1  0  0  0  0
  6 12  1  0  0  0  0
  7 13  2  0  0  0  0
  7 14  1  0  0  0  0
  8 10  2  0  0  0  0
  9 11  2  0  0  0  0
  9 19  1  0  0  0  0
 10 11  1  0  0  0  0
 11 20  1  0  0  0  0
 12 23  1  0  0  0  0
 13 15  1  0  0  0  0
 13 21  1  0  0  0  0
 14 16  2  0  0  0  0
 14 22  1  0  0  0  0
 15 17  2  0  0  0  0
 15 24  1  0  0  0  0
 16 17  1  0  0  0  0
 16 25  1  0  0  0  0
 18 26  1  0  0  0  0
 18 27  1  0  0  0  0
 18 28  1  0  0  0  0
M  END
> <PUBCHEM_COMPOUND_CID>
49830968

> <PUBCHEM_CONFORMER_RMSD>
0.6

> <PUBCHEM_CONFORMER_DIVERSEORDER>
1
3
2

> <PUBCHEM_MMFF94_PARTIAL_CHARGES>
24
1 -0.02
10 0.08
11 -0.15
12 0.14
13 -0.15
14 -0.15
15 -0.15
16 -0.15
17 0.1
18 0.28
19 0.15
2 -0.36
20 0.15
21 0.15
22 0.15
23 0.15
24 0.15
25 0.15
29 0.4
3 -0.41
30 0.4
4 -0.9
8 0.14
9 -0.15

> <PUBCHEM_EFFECTIVE_ROTOR_COUNT>
2

> <PUBCHEM_PHARMACOPHORE_FEATURES>
7
1 2 acceptor
1 3 acceptor
1 4 cation
1 4 donor
5 1 3 6 8 12 rings
6 5 6 8 9 10 11 rings
6 7 13 14 15 16 17 rings

> <PUBCHEM_HEAVY_ATOM_COUNT>
18

> <PUBCHEM_ATOM_DEF_STEREO_COUNT>
0

> <PUBCHEM_ATOM_UDEF_STEREO_COUNT>
0

> <PUBCHEM_BOND_DEF_STEREO_COUNT>
0

> <PUBCHEM_BOND_UDEF_STEREO_COUNT>
0

> <PUBCHEM_ISOTOPIC_ATOM_COUNT>
0

> <PUBCHEM_COMPONENT_COUNT>
1

> <PUBCHEM_CACTVS_TAUTO_COUNT>
4

> <PUBCHEM_CONFORMER_ID>
02F85C3800000001

> <PUBCHEM_MMFF94_ENERGY>
65.4689

> <PUBCHEM_FEATURE_SELFOVERLAP>
35.619

> <PUBCHEM_SHAPE_FINGERPRINT>
10967382 1 18409729556200697450
10980938 120 18410576149941646872
11471102 20 18408321072946563029
11796584 16 15123520198278343076
12107183 9 17621325637252922769
12236239 1 18131634487040186757
12553582 1 17905325122098696427
12644460 14 18260264123259275090
13140716 1 18191583271190775400
13380535 76 18334577975123534354
13583140 156 16010129060431100972
13760787 19 18273493494583317815
13836976 161 18260551168492063980
13862211 1 18264488395805493898
14251717 144 18409446972858732315
14576447 43 18200018664279911495
14790565 3 18336838592632510396
15279307 12 18343862238434246039
15375358 24 17821449053983136633
15375462 189 18201716237171033835
15442244 35 18124598570189137417
15536298 74 18272934886546459430
16945 1 18334859415761436572
1813 80 17911247113649010878
19422 9 18130507423039016267
200 152 18343016710092884741
20279233 1 16877665651890246737
204376 136 18261958556561140644
20559304 39 18201155460217869577
20645477 70 18336540509048154503
21054139 6 18268983362031466239
21065198 48 18272655602393408105
21267235 1 18341902839746152383
22445834 79 18343019956855915545
2255824 54 18410296904074035958
22854114 111 18410858741641567937
23402539 116 18201715214916407700
23402655 69 18341609296338549517
23419403 2 14204724228544915586
23598291 2 18057892346440593691
25 1 18335979848079881438
2748010 2 17976265956436346740
3071541 37 18333735710841351670
33824 294 18334295353168951122
34934 24 18272368668218053269
4072396 5 18187911885975179128
42630746 31 18411418401845212894
4340502 62 18259991491899873035
4409770 3 15099265367054807509
474 4 18337112366389318072
4990 188 17775014483440792924
5104073 3 18337112255173635601
602551 16 15554149472167865391
603831 33 18130777967455613333
633830 44 18343028817331600428
7364860 26 18342740663580478342
77492 1 18060135414759787509
81539 233 18113336418783442826
8272917 22 18410296874209647061
9981440 41 16478504705714956672

> <PUBCHEM_SHAPE_MULTIPOLES>
348.73
8.82
2.15
0.84
3.81
1.25
-0.02
-3.1
-0.33
-2.33
0.24
0.6
-0.05
-0.76

> <PUBCHEM_SHAPE_SELFOVERLAP>
776.696

> <PUBCHEM_SHAPE_VOLUME>
189.5

> <PUBCHEM_COORDINATE_TYPE>
2
5
10

$$$$
