49830559
  -OEChem-10052115193D

 59 63  0     0  0  0  0  0  0999 V2000
   -6.1097   -0.8075   -1.5461 S   0  0  0  0  0  0  0  0  0  0  0  0
   -6.1761   -2.7516    2.5113 O   0  0  0  0  0  0  0  0  0  0  0  0
   -7.4433   -0.4997   -2.0165 O   0  0  0  0  0  0  0  0  0  0  0  0
   -5.1130   -1.3584   -2.4395 O   0  0  0  0  0  0  0  0  0  0  0  0
   -1.6208    3.3116   -0.0894 O   0  0  0  0  0  0  0  0  0  0  0  0
    8.4624   -2.9073   -1.1766 O   0  0  0  0  0  0  0  0  0  0  0  0
   -6.2220   -1.8018   -0.1569 N   0  0  0  0  0  0  0  0  0  0  0  0
    5.0808    1.3677    0.8150 N   0  0  0  0  0  0  0  0  0  0  0  0
   -1.3303    0.9839   -0.0284 N   0  0  0  0  0  0  0  0  0  0  0  0
    4.9857   -0.5756   -0.2594 N   0  0  0  0  0  0  0  0  0  0  0  0
    6.1803   -2.7412   -1.3291 N   0  0  0  0  0  0  0  0  0  0  0  0
   -7.2928   -1.4311    0.8140 C   0  0  0  0  0  0  0  0  0  0  0  0
   -4.9334   -2.0731    0.5451 C   0  0  0  0  0  0  0  0  0  0  0  0
   -7.4236   -2.5426    1.8459 C   0  0  0  0  0  0  0  0  0  0  0  0
   -5.1636   -3.1579    1.5879 C   0  0  0  0  0  0  0  0  0  0  0  0
   -5.4403    0.6579   -0.8240 C   0  0  0  0  0  0  0  0  0  0  0  0
   -4.0582    0.8269   -0.7419 C   0  0  0  0  0  0  0  0  0  0  0  0
   -6.2942    1.6468   -0.3355 C   0  0  0  0  0  0  0  0  0  0  0  0
   -3.5299    1.9848   -0.1712 C   0  0  0  0  0  0  0  0  0  0  0  0
   -5.7657    2.8047    0.2353 C   0  0  0  0  0  0  0  0  0  0  0  0
   -4.3836    2.9738    0.3175 C   0  0  0  0  0  0  0  0  0  0  0  0
   -2.0889    2.1615   -0.0854 C   0  0  0  0  0  0  0  0  0  0  0  0
    4.2856    0.4274    0.2213 C   0  0  0  0  0  0  0  0  0  0  0  0
    6.3805    0.9432    0.7106 C   0  0  0  0  0  0  0  0  0  0  0  0
    6.2947   -0.2716    0.0362 C   0  0  0  0  0  0  0  0  0  0  0  0
    2.8514    0.5695    0.1572 C   0  0  0  0  0  0  0  0  0  0  0  0
    0.0781    0.8444    0.0345 C   0  0  0  0  0  0  0  0  0  0  0  0
    7.4725   -0.9864   -0.2396 C   0  0  0  0  0  0  0  0  0  0  0  0
    2.0379   -0.5636    0.1469 C   0  0  0  0  0  0  0  0  0  0  0  0
    2.2780    1.8401    0.1065 C   0  0  0  0  0  0  0  0  0  0  0  0
    7.5870    1.5007    1.1352 C   0  0  0  0  0  0  0  0  0  0  0  0
    0.6513   -0.4262    0.0855 C   0  0  0  0  0  0  0  0  0  0  0  0
    0.8914    1.9776    0.0450 C   0  0  0  0  0  0  0  0  0  0  0  0
    8.6954   -0.4459    0.1772 C   0  0  0  0  0  0  0  0  0  0  0  0
    8.7494    0.7757    0.8524 C   0  0  0  0  0  0  0  0  0  0  0  0
    7.4273   -2.2568   -0.9407 C   0  0  0  0  0  0  0  0  0  0  0  0
   -8.2508   -1.3042    0.3016 H   0  0  0  0  0  0  0  0  0  0  0  0
   -7.0253   -0.4999    1.3232 H   0  0  0  0  0  0  0  0  0  0  0  0
   -4.5886   -1.1702    1.0581 H   0  0  0  0  0  0  0  0  0  0  0  0
   -4.1715   -2.4082   -0.1647 H   0  0  0  0  0  0  0  0  0  0  0  0
   -8.1639   -2.2657    2.6031 H   0  0  0  0  0  0  0  0  0  0  0  0
   -7.7511   -3.4825    1.3857 H   0  0  0  0  0  0  0  0  0  0  0  0
   -5.4561   -4.1072    1.1234 H   0  0  0  0  0  0  0  0  0  0  0  0
   -4.2444   -3.3332    2.1556 H   0  0  0  0  0  0  0  0  0  0  0  0
   -3.4147    0.0611   -1.1638 H   0  0  0  0  0  0  0  0  0  0  0  0
   -7.3735    1.5356   -0.3862 H   0  0  0  0  0  0  0  0  0  0  0  0
   -6.4306    3.5738    0.6176 H   0  0  0  0  0  0  0  0  0  0  0  0
   -3.9929    3.8811    0.7708 H   0  0  0  0  0  0  0  0  0  0  0  0
    4.7779    2.2205    1.2669 H   0  0  0  0  0  0  0  0  0  0  0  0
   -1.8225    0.0958    0.0143 H   0  0  0  0  0  0  0  0  0  0  0  0
    2.4642   -1.5631    0.1887 H   0  0  0  0  0  0  0  0  0  0  0  0
    2.8843    2.7426    0.0997 H   0  0  0  0  0  0  0  0  0  0  0  0
    7.6263    2.4490    1.6589 H   0  0  0  0  0  0  0  0  0  0  0  0
    0.0290   -1.3174    0.0783 H   0  0  0  0  0  0  0  0  0  0  0  0
    0.5225    2.9926    0.0048 H   0  0  0  0  0  0  0  0  0  0  0  0
    9.6295   -0.9682   -0.0174 H   0  0  0  0  0  0  0  0  0  0  0  0
    9.7126    1.1718    1.1645 H   0  0  0  0  0  0  0  0  0  0  0  0
    6.1074   -3.6289   -1.8157 H   0  0  0  0  0  0  0  0  0  0  0  0
    5.3062   -2.2574   -1.1573 H   0  0  0  0  0  0  0  0  0  0  0  0
  1  3  2  0  0  0  0
  1  4  2  0  0  0  0
  1  7  1  0  0  0  0
  1 16  1  0  0  0  0
  2 14  1  0  0  0  0
  2 15  1  0  0  0  0
  5 22  2  0  0  0  0
  6 36  2  0  0  0  0
  7 12  1  0  0  0  0
  7 13  1  0  0  0  0
  8 23  1  0  0  0  0
  8 24  1  0  0  0  0
  8 49  1  0  0  0  0
  9 22  1  0  0  0  0
  9 27  1  0  0  0  0
  9 50  1  0  0  0  0
 10 23  2  0  0  0  0
 10 25  1  0  0  0  0
 11 36  1  0  0  0  0
 11 58  1  0  0  0  0
 11 59  1  0  0  0  0
 12 14  1  0  0  0  0
 12 37  1  0  0  0  0
 12 38  1  0  0  0  0
 13 15  1  0  0  0  0
 13 39  1  0  0  0  0
 13 40  1  0  0  0  0
 14 41  1  0  0  0  0
 14 42  1  0  0  0  0
 15 43  1  0  0  0  0
 15 44  1  0  0  0  0
 16 17  1  0  0  0  0
 16 18  2  0  0  0  0
 17 19  2  0  0  0  0
 17 45  1  0  0  0  0
 18 20  1  0  0  0  0
 18 46  1  0  0  0  0
 19 21  1  0  0  0  0
 19 22  1  0  0  0  0
 20 21  2  0  0  0  0
 20 47  1  0  0  0  0
 21 48  1  0  0  0  0
 23 26  1  0  0  0  0
 24 25  1  0  0  0  0
 24 31  2  0  0  0  0
 25 28  2  0  0  0  0
 26 29  2  0  0  0  0
 26 30  1  0  0  0  0
 27 32  2  0  0  0  0
 27 33  1  0  0  0  0
 28 34  1  0  0  0  0
 28 36  1  0  0  0  0
 29 32  1  0  0  0  0
 29 51  1  0  0  0  0
 30 33  2  0  0  0  0
 30 52  1  0  0  0  0
 31 35  1  0  0  0  0
 31 53  1  0  0  0  0
 32 54  1  0  0  0  0
 33 55  1  0  0  0  0
 34 35  2  0  0  0  0
 34 56  1  0  0  0  0
 35 57  1  0  0  0  0
M  END
> <PUBCHEM_COMPOUND_CID>
49830559

> <PUBCHEM_CONFORMER_RMSD>
1

> <PUBCHEM_CONFORMER_DIVERSEORDER>
3
8
14
69
86
56
27
41
60
52
19
76
4
16
29
11
59
28
83
35
77
21
26
74
87
15
61
63
84
78
82
62
72
20
40
17
51
7
75
34
1
67
55
44
9
48
79
43
42
45
58
18
2
66
37
31
30
49
81
68
70
5
73
25
57
36
6
24
80
65
12
50
71
64
33
10
54
13
22
32
47
38
23
46
53
39
85

> <PUBCHEM_MMFF94_PARTIAL_CHARGES>
51
1 1.45
10 -0.57
11 -0.8
12 0.36
13 0.36
14 0.28
15 0.28
16 -0.01
17 -0.15
18 -0.15
19 0.09
2 -0.56
20 -0.15
21 -0.15
22 0.54
23 0.13
24 -0.15
25 0.23
26 0.05
27 0.12
28 0.09
29 -0.15
3 -0.65
30 -0.15
31 -0.15
32 -0.15
33 -0.15
34 -0.15
35 -0.15
36 0.54
4 -0.65
45 0.15
46 0.15
47 0.15
48 0.15
49 0.27
5 -0.57
50 0.37
51 0.15
52 0.15
53 0.15
54 0.15
55 0.15
56 0.15
57 0.15
58 0.37
59 0.37
6 -0.57
7 -0.85
8 0.03
9 -0.55

> <PUBCHEM_EFFECTIVE_ROTOR_COUNT>
8.2

> <PUBCHEM_PHARMACOPHORE_FEATURES>
14
1 11 donor
1 2 acceptor
1 3 acceptor
1 4 acceptor
1 5 acceptor
1 6 acceptor
1 8 donor
1 9 donor
3 8 10 23 cation
5 8 10 23 24 25 rings
6 16 17 18 19 20 21 rings
6 2 7 12 13 14 15 rings
6 24 25 28 31 34 35 rings
6 26 27 29 30 32 33 rings

> <PUBCHEM_HEAVY_ATOM_COUNT>
36

> <PUBCHEM_ATOM_DEF_STEREO_COUNT>
0

> <PUBCHEM_ATOM_UDEF_STEREO_COUNT>
0

> <PUBCHEM_BOND_DEF_STEREO_COUNT>
0

> <PUBCHEM_BOND_UDEF_STEREO_COUNT>
0

> <PUBCHEM_ISOTOPIC_ATOM_COUNT>
0

> <PUBCHEM_COMPONENT_COUNT>
1

> <PUBCHEM_CACTVS_TAUTO_COUNT>
26

> <PUBCHEM_CONFORMER_ID>
02F85A9F00000003

> <PUBCHEM_MMFF94_ENERGY>
90.0903

> <PUBCHEM_FEATURE_SELFOVERLAP>
71.174

> <PUBCHEM_SHAPE_FINGERPRINT>
10258705 36 18341342119340538302
10391435 84 18334566984143767025
10462385 53 18260558805007805139
11135926 11 17967809423644650787
12082328 90 18409730655754490861
12106331 60 18336817641749547425
12144600 37 18341052926491199398
12522641 68 16809235205316776605
12841400 136 18337667615978294921
13782708 43 18060133262680654296
13811026 1 18412261735990756214
14279260 333 18259979375438844347
150020 25 18409442575039120220
15064986 266 18411987948515226305
15183329 4 17603862299820989930
15461852 350 14417856951645154313
15510794 2 18413388722033714388
15510800 12 18408609175063333027
16067689 302 18191029095370528780
17686467 74 18335977662280157936
19611394 137 18339083790964533929
20721686 56 18413669115512701359
20982279 24 18270699588456827998
21130935 74 17988358175139568744
21792938 79 16557896979287715426
23569943 247 17831863452719421066
23576562 1 17313393365050318100
24204213 126 17316496286640771643
25025965 108 17987779870610299007
2747138 104 18411415129043866632
335507 130 18342736360429306484
3383291 50 18260830444551625115
395649 100 18260265256956541641
4073 2 18410576158478762603
437795 150 17895199930594098715
44426701 170 18118403075866350115
4461854 278 18059579138943789927
44880568 143 18040714732495220460
4625314 4 18411132502852545892
49967989 163 17458636669262716515
5047190 19 17313677048199329467
5109719 28 17844797274163642536
54039377 194 18115029714430834451
54583773 228 17969511575346152524
57676310 167 18337957780781543761
58083652 198 15697704969928190097
58260988 114 18041574628640604033
6441014 3 17537730172047673235
9953998 17 18343867702250059041
999808 66 18412545431512986287

> <PUBCHEM_SHAPE_MULTIPOLES>
690.46
31.39
3.67
1.47
33.78
0.66
0.1
16.57
-0.67
-4.79
-0.76
-2.67
1.31
4.88

> <PUBCHEM_SHAPE_SELFOVERLAP>
1510.974

> <PUBCHEM_SHAPE_VOLUME>
373.6

> <PUBCHEM_COORDINATE_TYPE>
2
5
10

$$$$
