9818231
  -OEChem-10052120443D

 43 45  0     1  0  0  0  0  0999 V2000
   -4.0416   -1.2821   -0.8267 O   0  0  0  0  0  0  0  0  0  0  0  0
   -2.5779    0.4004   -0.1767 N   0  0  0  0  0  0  0  0  0  0  0  0
    0.8199   -1.1042   -0.0586 N   0  0  0  0  0  0  0  0  0  0  0  0
    1.6841    0.5494   -1.5474 N   0  0  0  0  0  0  0  0  0  0  0  0
    5.3136    0.1274    0.1763 N   0  0  0  0  0  0  0  0  0  0  0  0
    4.0117    1.2623   -1.5062 N   0  0  0  0  0  0  0  0  0  0  0  0
   -7.2409   -0.6601   -0.2803 N   0  0  0  0  0  0  0  0  0  0  0  0
   -0.3745   -0.4933    0.4870 C   0  0  1  0  0  0  0  0  0  0  0  0
   -0.0340    0.8581    1.1519 C   0  0  1  0  0  0  0  0  0  0  0  0
   -1.3244    1.5819    1.5770 C   0  0  0  0  0  0  0  0  0  0  0  0
   -1.3905   -0.3129   -0.6459 C   0  0  0  0  0  0  0  0  0  0  0  0
   -2.3043    1.7138    0.4141 C   0  0  0  0  0  0  0  0  0  0  0  0
    0.8849    0.6811    2.3639 C   0  0  0  0  0  0  0  0  0  0  0  0
    1.8832   -0.3262   -0.5303 C   0  0  0  0  0  0  0  0  0  0  0  0
   -3.8397   -0.1732   -0.3252 C   0  0  0  0  0  0  0  0  0  0  0  0
    0.8888   -2.5630   -0.1205 C   0  0  0  0  0  0  0  0  0  0  0  0
    3.1586   -0.4340    0.0314 C   0  0  0  0  0  0  0  0  0  0  0  0
   -5.0118    0.6357    0.1703 C   0  0  0  0  0  0  0  0  0  0  0  0
    4.1509    0.3793   -0.5021 C   0  0  0  0  0  0  0  0  0  0  0  0
    3.7600   -1.1958    1.0657 C   0  0  0  0  0  0  0  0  0  0  0  0
    2.7439    1.2776   -1.9655 C   0  0  0  0  0  0  0  0  0  0  0  0
    5.0874   -0.8293    1.1325 C   0  0  0  0  0  0  0  0  0  0  0  0
   -6.2476   -0.0929   -0.0845 C   0  0  0  0  0  0  0  0  0  0  0  0
   -0.8151   -1.1526    1.2480 H   0  0  0  0  0  0  0  0  0  0  0  0
    0.4627    1.5388    0.4508 H   0  0  0  0  0  0  0  0  0  0  0  0
   -1.0871    2.5788    1.9668 H   0  0  0  0  0  0  0  0  0  0  0  0
   -1.8059    1.0244    2.3911 H   0  0  0  0  0  0  0  0  0  0  0  0
   -0.9766    0.2752   -1.4736 H   0  0  0  0  0  0  0  0  0  0  0  0
   -1.6688   -1.2859   -1.0652 H   0  0  0  0  0  0  0  0  0  0  0  0
   -3.2131    2.2067    0.7630 H   0  0  0  0  0  0  0  0  0  0  0  0
   -1.8778    2.3437   -0.3757 H   0  0  0  0  0  0  0  0  0  0  0  0
    1.8940    0.3735    2.1161 H   0  0  0  0  0  0  0  0  0  0  0  0
    0.9805    1.6292    2.9061 H   0  0  0  0  0  0  0  0  0  0  0  0
    0.4714   -0.0529    3.0645 H   0  0  0  0  0  0  0  0  0  0  0  0
    1.4964   -2.8965   -0.9688 H   0  0  0  0  0  0  0  0  0  0  0  0
   -0.1087   -2.9987   -0.2420 H   0  0  0  0  0  0  0  0  0  0  0  0
    1.3179   -2.9643    0.8023 H   0  0  0  0  0  0  0  0  0  0  0  0
   -4.8993    0.8123    1.2448 H   0  0  0  0  0  0  0  0  0  0  0  0
   -5.0362    1.5963   -0.3540 H   0  0  0  0  0  0  0  0  0  0  0  0
    3.2883   -1.9301    1.7035 H   0  0  0  0  0  0  0  0  0  0  0  0
    6.2009    0.5775   -0.0005 H   0  0  0  0  0  0  0  0  0  0  0  0
    2.5463    1.9670   -2.7793 H   0  0  0  0  0  0  0  0  0  0  0  0
    5.8894   -1.1629    1.7757 H   0  0  0  0  0  0  0  0  0  0  0  0
  1 15  2  0  0  0  0
  2 11  1  0  0  0  0
  2 12  1  0  0  0  0
  2 15  1  0  0  0  0
  3  8  1  0  0  0  0
  3 14  1  0  0  0  0
  3 16  1  0  0  0  0
  4 14  2  0  0  0  0
  4 21  1  0  0  0  0
  5 19  1  0  0  0  0
  5 22  1  0  0  0  0
  5 41  1  0  0  0  0
  6 19  1  0  0  0  0
  6 21  2  0  0  0  0
  7 23  3  0  0  0  0
  8  9  1  0  0  0  0
  8 11  1  0  0  0  0
  8 24  1  0  0  0  0
  9 10  1  0  0  0  0
  9 13  1  0  0  0  0
  9 25  1  0  0  0  0
 10 12  1  0  0  0  0
 10 26  1  0  0  0  0
 10 27  1  0  0  0  0
 11 28  1  0  0  0  0
 11 29  1  0  0  0  0
 12 30  1  0  0  0  0
 12 31  1  0  0  0  0
 13 32  1  0  0  0  0
 13 33  1  0  0  0  0
 13 34  1  0  0  0  0
 14 17  1  0  0  0  0
 15 18  1  0  0  0  0
 16 35  1  0  0  0  0
 16 36  1  0  0  0  0
 16 37  1  0  0  0  0
 17 19  2  0  0  0  0
 17 20  1  0  0  0  0
 18 23  1  0  0  0  0
 18 38  1  0  0  0  0
 18 39  1  0  0  0  0
 20 22  2  0  0  0  0
 20 40  1  0  0  0  0
 21 42  1  0  0  0  0
 22 43  1  0  0  0  0
M  END
> <PUBCHEM_COMPOUND_CID>
9818231

> <PUBCHEM_CONFORMER_RMSD>
0.8

> <PUBCHEM_CONFORMER_DIVERSEORDER>
1
132
196
34
197
164
185
234
27
242
221
75
285
108
260
179
88
2
37
97
101
63
129
83
137
139
182
226
282
227
254
166
263
217
186
163
78
181
96
47
278
212
287
44
162
89
20
228
154
237
249
131
213
152
255
104
265
156
51
130
210
157
208
49
102
165
230
284
10
90
270
73
141
125
86
23
243
72
40
248
256
203
160
59
61
214
126
276
13
283
84
39
136
76
211
67
41
22
52
229
219
224
24
145
107
79
281
279
188
30
99
117
36
87
271
12
65
103
118
200
167
178
35
173
62
233
60
14
274
266
58
261
206
29
231
43
239
142
245
8
161
120
111
193
180
110
257
116
9
191
172
235
268
100
153
91
55
241
148
280
16
170
69
275
159
32
50
25
218
247
46
6
277
205
15
251
105
140
45
262
177
133
106
158
187
207
244
82
127
54
138
19
192
68
252
64
7
171
124
5
128
77
33
98
119
113
174
272
81
3
123
42
85
143
215
286
57
238
56
183
115
194
53
122
199
195
93
147
11
250
240
31
202
146
4
184
28
48
168
189
155
209
259
223
134
175
190
80
38
232
94
71
121
236
26
258
253
273
18
70
135
204
112
216
149
151
198
17
109
21
176
66
264
225
74
92
222
114
267
220
269
150
169
144
246
95
201

> <PUBCHEM_MMFF94_PARTIAL_CHARGES>
23
1 -0.57
11 0.3
12 0.3
14 0.41
15 0.57
16 0.37
18 0.26
19 0.11
2 -0.66
20 -0.15
21 0.47
22 -0.3
23 0.36
3 -0.84
4 -0.62
40 0.15
41 0.27
42 0.15
43 0.15
5 0.03
6 -0.57
7 -0.56
8 0.37

> <PUBCHEM_EFFECTIVE_ROTOR_COUNT>
5.2

> <PUBCHEM_PHARMACOPHORE_FEATURES>
9
1 1 acceptor
1 5 cation
1 5 donor
1 7 acceptor
3 3 4 14 cation
3 4 6 21 cation
5 5 17 19 20 22 rings
6 2 8 9 10 11 12 rings
6 4 6 14 17 19 21 rings

> <PUBCHEM_HEAVY_ATOM_COUNT>
23

> <PUBCHEM_ATOM_DEF_STEREO_COUNT>
0

> <PUBCHEM_ATOM_UDEF_STEREO_COUNT>
2

> <PUBCHEM_BOND_DEF_STEREO_COUNT>
0

> <PUBCHEM_BOND_UDEF_STEREO_COUNT>
0

> <PUBCHEM_ISOTOPIC_ATOM_COUNT>
0

> <PUBCHEM_COMPONENT_COUNT>
1

> <PUBCHEM_CACTVS_TAUTO_COUNT>
3

> <PUBCHEM_CONFORMER_ID>
0095D07700000001

> <PUBCHEM_MMFF94_ENERGY>
66.1624

> <PUBCHEM_FEATURE_SELFOVERLAP>
45.9

> <PUBCHEM_SHAPE_FINGERPRINT>
10090160 65 18334854996303860215
11578080 2 18050846912490980672
12166972 35 18409167680358599168
12236239 1 18335138665739301137
12516196 113 15841550786782855017
12592029 89 17822008670978944826
128620 24 17703791392483737172
13134695 92 17385447605325221444
13167372 99 17967813795942814661
13464513 79 17131826577696700609
13533116 47 18187081728725950866
13583140 156 16950861287580878288
14251739 40 18187926115212509978
14294032 229 18053677884250149601
14386348 63 16559033783293426261
14573314 32 14404911254304889483
14863182 85 18202284663108258574
15527383 91 16702296876039029425
17349148 13 18334861584751589154
17492 89 17913209758662479766
1813 80 17346324803775968393
192875 21 18187089442418928300
19319366 153 18411412895919588623
19377110 9 18339935818355934649
200 152 18040434377997694073
20157964 124 17458349658067378932
20567600 75 13973694893088581473
20691752 17 18196907037313748633
21033650 10 17984450497212483516
21521721 280 18201724010919441113
22149856 69 18129680629677882171
23402539 116 17989197157628686350
23536379 177 17894347761795148773
23557571 272 16988851535929212896
23559900 14 17561092380317546214
314173 85 17060627706983445601
34797466 226 16917353666155617525
351380 180 16877663461040382772
4325135 7 18407759227285092039
4340502 62 18408042901238065995
439807 62 18042690675682018283
495365 180 16515685576418864464
5486654 2 18202282519613323502
59755656 215 18060146397070980550
621550 34 15339117910199159944
7495541 125 18339361967580252369

> <PUBCHEM_SHAPE_MULTIPOLES>
437.57
12.85
1.64
1.59
15.55
0.13
-0.34
2.07
-0.79
0.52
0.5
-2.19
-0.48
-0.88

> <PUBCHEM_SHAPE_SELFOVERLAP>
932.761

> <PUBCHEM_SHAPE_VOLUME>
237.8

> <PUBCHEM_COORDINATE_TYPE>
2
5
10

$$$$
