49830351
  -OEChem-10052115193D

 55 59  0     0  0  0  0  0  0999 V2000
    4.2730   -1.5242    1.1741 S   0  0  0  0  0  0  0  0  0  0  0  0
   -4.3641    0.4932    0.9289 O   0  0  0  0  0  0  0  0  0  0  0  0
    3.8931    1.8126   -1.7897 N   0  0  0  0  0  0  0  0  0  0  0  0
    8.6682    0.5203    1.0055 N   0  0  0  0  0  0  0  0  0  0  0  0
    1.5630    1.4221   -1.8649 N   0  0  0  0  0  0  0  0  0  0  0  0
    8.7075   -0.7495    0.5669 N   0  0  0  0  0  0  0  0  0  0  0  0
   -3.5334   -0.9756   -0.6965 N   0  0  0  0  0  0  0  0  0  0  0  0
   -5.8085   -0.6060   -0.5457 N   0  0  0  0  0  0  0  0  0  0  0  0
    2.9919    0.0534   -0.4240 C   0  0  0  0  0  0  0  0  0  0  0  0
    4.2796   -0.2220    0.0450 C   0  0  0  0  0  0  0  0  0  0  0  0
    2.0252   -0.8270    0.1672 C   0  0  0  0  0  0  0  0  0  0  0  0
    5.3864    0.5134   -0.3955 C   0  0  0  0  0  0  0  0  0  0  0  0
    0.6003   -0.8656   -0.0536 C   0  0  0  0  0  0  0  0  0  0  0  0
    2.8347    1.0931   -1.3542 C   0  0  0  0  0  0  0  0  0  0  0  0
    6.7117    0.2465    0.0741 C   0  0  0  0  0  0  0  0  0  0  0  0
    2.5850   -1.7241    1.0457 C   0  0  0  0  0  0  0  0  0  0  0  0
    5.1172    1.5143   -1.3124 C   0  0  0  0  0  0  0  0  0  0  0  0
   -0.2501   -0.0995    0.7437 C   0  0  0  0  0  0  0  0  0  0  0  0
    0.0728   -1.6684   -1.0650 C   0  0  0  0  0  0  0  0  0  0  0  0
    7.4947    1.1608    0.7354 C   0  0  0  0  0  0  0  0  0  0  0  0
   -2.1553   -0.9394   -0.4815 C   0  0  0  0  0  0  0  0  0  0  0  0
    7.5095   -0.9110   -0.0012 C   0  0  0  0  0  0  0  0  0  0  0  0
   -1.6279   -0.1364    0.5299 C   0  0  0  0  0  0  0  0  0  0  0  0
   -1.3050   -1.7054   -1.2789 C   0  0  0  0  0  0  0  0  0  0  0  0
    9.8098    1.0773    1.6909 C   0  0  0  0  0  0  0  0  0  0  0  0
   -4.5546   -0.2796   -0.0047 C   0  0  0  0  0  0  0  0  0  0  0  0
   -7.0799   -0.1312   -0.1457 C   0  0  0  0  0  0  0  0  0  0  0  0
   -9.5862    0.8052    0.6440 C   0  0  0  0  0  0  0  0  0  0  0  0
   -8.2280   -0.5702   -0.8053 C   0  0  0  0  0  0  0  0  0  0  0  0
   -7.1850    0.7761    0.9086 C   0  0  0  0  0  0  0  0  0  0  0  0
   -9.4810   -0.1020   -0.4104 C   0  0  0  0  0  0  0  0  0  0  0  0
   -8.4382    1.2443    1.3034 C   0  0  0  0  0  0  0  0  0  0  0  0
  -10.9266    1.3050    1.0663 C   0  0  0  0  0  0  0  0  0  0  0  0
    2.0906   -2.4930    1.6246 H   0  0  0  0  0  0  0  0  0  0  0  0
    5.9118    2.1370   -1.7154 H   0  0  0  0  0  0  0  0  0  0  0  0
    0.1464    0.5324    1.5352 H   0  0  0  0  0  0  0  0  0  0  0  0
    0.7219   -2.2706   -1.6963 H   0  0  0  0  0  0  0  0  0  0  0  0
    7.3221    2.1873    1.0313 H   0  0  0  0  0  0  0  0  0  0  0  0
    7.2749   -1.8667   -0.4488 H   0  0  0  0  0  0  0  0  0  0  0  0
   -2.2179    0.4849    1.1882 H   0  0  0  0  0  0  0  0  0  0  0  0
   -1.7023   -2.3351   -2.0710 H   0  0  0  0  0  0  0  0  0  0  0  0
    0.7195    0.9436   -1.5993 H   0  0  0  0  0  0  0  0  0  0  0  0
    1.5048    2.1802   -2.5325 H   0  0  0  0  0  0  0  0  0  0  0  0
   -3.8419   -1.5836   -1.4512 H   0  0  0  0  0  0  0  0  0  0  0  0
    9.5986    2.1121    1.9712 H   0  0  0  0  0  0  0  0  0  0  0  0
   10.6679    1.0411    1.0151 H   0  0  0  0  0  0  0  0  0  0  0  0
    9.9990    0.4791    2.5858 H   0  0  0  0  0  0  0  0  0  0  0  0
   -5.8139   -1.2641   -1.3209 H   0  0  0  0  0  0  0  0  0  0  0  0
   -8.1599   -1.2773   -1.6281 H   0  0  0  0  0  0  0  0  0  0  0  0
   -6.3459    1.1629    1.4687 H   0  0  0  0  0  0  0  0  0  0  0  0
  -10.3684   -0.4528   -0.9308 H   0  0  0  0  0  0  0  0  0  0  0  0
   -8.5088    1.9496    2.1274 H   0  0  0  0  0  0  0  0  0  0  0  0
  -11.6193    1.3426    0.2186 H   0  0  0  0  0  0  0  0  0  0  0  0
  -10.8602    2.3208    1.4705 H   0  0  0  0  0  0  0  0  0  0  0  0
  -11.3473    0.6486    1.8344 H   0  0  0  0  0  0  0  0  0  0  0  0
  1 10  1  0  0  0  0
  1 16  1  0  0  0  0
  2 26  2  0  0  0  0
  3 14  2  0  0  0  0
  3 17  1  0  0  0  0
  4  6  1  0  0  0  0
  4 20  1  0  0  0  0
  4 25  1  0  0  0  0
  5 14  1  0  0  0  0
  5 42  1  0  0  0  0
  5 43  1  0  0  0  0
  6 22  2  0  0  0  0
  7 21  1  0  0  0  0
  7 26  1  0  0  0  0
  7 44  1  0  0  0  0
  8 26  1  0  0  0  0
  8 27  1  0  0  0  0
  8 48  1  0  0  0  0
  9 10  2  0  0  0  0
  9 11  1  0  0  0  0
  9 14  1  0  0  0  0
 10 12  1  0  0  0  0
 11 13  1  0  0  0  0
 11 16  2  0  0  0  0
 12 15  1  0  0  0  0
 12 17  2  0  0  0  0
 13 18  2  0  0  0  0
 13 19  1  0  0  0  0
 15 20  2  0  0  0  0
 15 22  1  0  0  0  0
 16 34  1  0  0  0  0
 17 35  1  0  0  0  0
 18 23  1  0  0  0  0
 18 36  1  0  0  0  0
 19 24  2  0  0  0  0
 19 37  1  0  0  0  0
 20 38  1  0  0  0  0
 21 23  2  0  0  0  0
 21 24  1  0  0  0  0
 22 39  1  0  0  0  0
 23 40  1  0  0  0  0
 24 41  1  0  0  0  0
 25 45  1  0  0  0  0
 25 46  1  0  0  0  0
 25 47  1  0  0  0  0
 27 29  2  0  0  0  0
 27 30  1  0  0  0  0
 28 31  2  0  0  0  0
 28 32  1  0  0  0  0
 28 33  1  0  0  0  0
 29 31  1  0  0  0  0
 29 49  1  0  0  0  0
 30 32  2  0  0  0  0
 30 50  1  0  0  0  0
 31 51  1  0  0  0  0
 32 52  1  0  0  0  0
 33 53  1  0  0  0  0
 33 54  1  0  0  0  0
 33 55  1  0  0  0  0
M  END
> <PUBCHEM_COMPOUND_CID>
49830351

> <PUBCHEM_CONFORMER_RMSD>
0.8

> <PUBCHEM_CONFORMER_DIVERSEORDER>
1
9
19
16
22
17
6
4
18
21
14
5
13
20
8
10
15
11
3
12
7
2

> <PUBCHEM_MMFF94_PARTIAL_CHARGES>
48
1 -0.08
10 0.04
11 -0.05
12 0.05
13 0.05
14 0.41
15 -0.05
16 -0.11
17 0.16
18 -0.15
19 -0.15
2 -0.57
20 -0.3
21 0.12
22 0.14
23 -0.15
24 -0.15
25 0.26
26 0.69
27 0.12
28 -0.14
29 -0.15
3 -0.62
30 -0.15
31 -0.15
32 -0.15
33 0.14
34 0.15
35 0.15
36 0.15
37 0.15
38 0.15
39 0.15
4 0.31
40 0.15
41 0.15
42 0.4
43 0.4
44 0.37
48 0.37
49 0.15
5 -0.9
50 0.15
51 0.15
52 0.15
6 -0.71
7 -0.55
8 -0.55

> <PUBCHEM_EFFECTIVE_ROTOR_COUNT>
6

> <PUBCHEM_PHARMACOPHORE_FEATURES>
11
1 2 acceptor
1 5 donor
1 6 acceptor
1 7 donor
1 8 donor
3 3 5 14 cation
5 1 9 10 11 16 rings
5 4 6 15 20 22 rings
6 13 18 19 21 23 24 rings
6 27 28 29 30 31 32 rings
6 3 9 10 12 14 17 rings

> <PUBCHEM_HEAVY_ATOM_COUNT>
33

> <PUBCHEM_ATOM_DEF_STEREO_COUNT>
0

> <PUBCHEM_ATOM_UDEF_STEREO_COUNT>
0

> <PUBCHEM_BOND_DEF_STEREO_COUNT>
0

> <PUBCHEM_BOND_UDEF_STEREO_COUNT>
0

> <PUBCHEM_ISOTOPIC_ATOM_COUNT>
0

> <PUBCHEM_COMPONENT_COUNT>
1

> <PUBCHEM_CACTVS_TAUTO_COUNT>
6

> <PUBCHEM_CONFORMER_ID>
02F859CF00000001

> <PUBCHEM_MMFF94_ENERGY>
102.1496

> <PUBCHEM_FEATURE_SELFOVERLAP>
55.936

> <PUBCHEM_SHAPE_FINGERPRINT>
10 15 18411140217567857635
10162869 55 18041273357600638303
10533779 47 17095526154066278747
11135609 127 16845282904597254392
11443803 9 18060137639469145919
11456790 92 17530964687416243597
11607047 141 18060133186595804378
12089408 11 18202561778756142007
12236239 1 18340203090060653662
12498461 61 15213303054276070489
12522641 33 16200154283124990318
12539745 222 14490464267290167911
12664476 115 17968090928507122365
12741549 16 16008742516333788412
14150022 121 16298378025390681367
14251764 46 17775283867625628994
14294032 229 18059853923136458101
14344974 52 16845565453262514705
150020 25 14692571031303588855
15131766 46 16011590388809437244
15247644 1 11025803094359767169
15419008 145 17822004277053880101
15510794 2 14979953684480902375
155225 1 17989488511784577809
15840311 113 18343021104187410836
16728433 281 14835021460360231251
1818759 1 11025798695795621625
20105231 36 12612746913603447680
20505436 4 18131061632444750071
20812841 46 18186799176197635240
21057603 238 15793677909203861386
21057603 43 18200590295233455474
21362267 20 14634876370613507985
21362267 313 17988081071775271954
21591340 7 18412823612155114879
22956985 138 11532131462318638841
24771293 8 16917078741621076313
24893992 56 18337391642896187339
249057 3 17822013129028403675
3092352 35 18410292519820424487
3178227 256 17313101969606078690
3711267 37 17988656190178359681
395649 100 18130218359710214791
45377200 153 13326554278489499229
5028188 123 16128649761755230261
54039377 194 10953459626933911883
57303763 39 14490774389144659794
6081469 158 15769781238842421160
67123 10 17775283868021196571
9962374 69 11963399569680346483

> <PUBCHEM_SHAPE_MULTIPOLES>
647.22
36.38
1.61
1.43
47.05
0.11
-0.29
-15.72
12.03
-0.49
-0.09
-1.42
-0.38
-2.08

> <PUBCHEM_SHAPE_SELFOVERLAP>
1429.224

> <PUBCHEM_SHAPE_VOLUME>
350.6

> <PUBCHEM_COORDINATE_TYPE>
2
5
10

$$$$
