24807809
  -OEChem-10062121573D

 80 83  0     1  0  0  0  0  0999 V2000
    5.4921    3.1852   -0.5975 O   0  0  0  0  0  0  0  0  0  0  0  0
    2.9792   -1.8411   -0.5692 O   0  0  0  0  0  0  0  0  0  0  0  0
   -1.0976   -3.1423   -0.1834 O   0  0  0  0  0  0  0  0  0  0  0  0
    0.0998    2.1501    2.4742 O   0  0  0  0  0  0  0  0  0  0  0  0
   -2.2678    1.0444    1.9992 O   0  0  0  0  0  0  0  0  0  0  0  0
    0.9340   -3.9476    1.7345 O   0  0  0  0  0  0  0  0  0  0  0  0
   -3.3417   -3.3333   -0.0969 O   0  0  0  0  0  0  0  0  0  0  0  0
    3.8817   -1.9442   -2.6933 O   0  0  0  0  0  0  0  0  0  0  0  0
   -2.6482    2.0721   -3.6321 O   0  0  0  0  0  0  0  0  0  0  0  0
   -3.8647    0.7450   -0.4139 N   0  0  3  0  0  0  0  0  0  0  0  0
    3.4997    1.8095   -0.1511 C   0  0  1  0  0  0  0  0  0  0  0  0
    2.5669    1.7625    1.0800 C   0  0  1  0  0  0  0  0  0  0  0  0
    4.6493    2.6625    0.4113 C   0  0  2  0  0  0  0  0  0  0  0  0
    3.8758    0.3657   -0.4656 C   0  0  0  0  0  0  0  0  0  0  0  0
    2.5230    3.2392    1.4999 C   0  0  0  0  0  0  0  0  0  0  0  0
    1.3173    0.9493    0.8279 C   0  0  0  0  0  0  0  0  0  0  0  0
    3.9315    3.7768    1.1889 C   0  0  0  0  0  0  0  0  0  0  0  0
    1.3217   -0.1067   -0.0215 C   0  0  0  0  0  0  0  0  0  0  0  0
    2.6210   -0.4776   -0.7778 C   0  0  2  0  0  0  0  0  0  0  0  0
    0.0385   -0.9154   -0.3510 C   0  0  1  0  0  0  0  0  0  0  0  0
    2.8833    2.4845   -1.4049 C   0  0  0  0  0  0  0  0  0  0  0  0
    0.1255   -2.4019    0.1014 C   0  0  1  0  0  0  0  0  0  0  0  0
   -1.2090   -0.3759    0.3504 C   0  0  0  0  0  0  0  0  0  0  0  0
    0.0867    1.3073    1.5801 C   0  0  0  0  0  0  0  0  0  0  0  0
   -0.1795   -0.8355   -1.8901 C   0  0  0  0  0  0  0  0  0  0  0  0
   -1.1833    0.6197    1.2568 C   0  0  0  0  0  0  0  0  0  0  0  0
   -2.4127   -1.1382    0.0274 C   0  0  0  0  0  0  0  0  0  0  0  0
    0.4524   -2.6270    1.5814 C   0  0  0  0  0  0  0  0  0  0  0  0
   -2.3454   -2.6192   -0.0679 C   0  0  0  0  0  0  0  0  0  0  0  0
    3.6069   -2.4547   -1.6158 C   0  0  0  0  0  0  0  0  0  0  0  0
   -3.5799   -0.5731   -0.3252 C   0  0  0  0  0  0  0  0  0  0  0  0
    3.9221   -3.8749   -1.2554 C   0  0  0  0  0  0  0  0  0  0  0  0
   -5.0663    1.3197    0.1945 C   0  0  0  0  0  0  0  0  0  0  0  0
   -3.1364    1.6337   -1.3215 C   0  0  0  0  0  0  0  0  0  0  0  0
    1.2621   -4.2373    3.0894 C   0  0  0  0  0  0  0  0  0  0  0  0
   -5.8519    0.2023    0.8866 C   0  0  0  0  0  0  0  0  0  0  0  0
   -4.6362    2.3766    1.2144 C   0  0  0  0  0  0  0  0  0  0  0  0
   -5.9191    1.9584   -0.9053 C   0  0  0  0  0  0  0  0  0  0  0  0
   -3.3306    1.1811   -2.7588 C   0  0  0  0  0  0  0  0  0  0  0  0
    3.0830    1.2362    1.9009 H   0  0  0  0  0  0  0  0  0  0  0  0
    5.2691    2.0732    1.0989 H   0  0  0  0  0  0  0  0  0  0  0  0
    4.5798    0.3213   -1.3062 H   0  0  0  0  0  0  0  0  0  0  0  0
    4.4146   -0.0821    0.3815 H   0  0  0  0  0  0  0  0  0  0  0  0
    1.7679    3.7982    0.9354 H   0  0  0  0  0  0  0  0  0  0  0  0
    2.2990    3.3582    2.5650 H   0  0  0  0  0  0  0  0  0  0  0  0
    4.4763    4.0009    2.1130 H   0  0  0  0  0  0  0  0  0  0  0  0
    3.8751    4.7110    0.6189 H   0  0  0  0  0  0  0  0  0  0  0  0
    2.3992   -0.3088   -1.8391 H   0  0  0  0  0  0  0  0  0  0  0  0
    2.6915    3.5515   -1.2522 H   0  0  0  0  0  0  0  0  0  0  0  0
    1.9318    2.0366   -1.7054 H   0  0  0  0  0  0  0  0  0  0  0  0
    3.5643    2.4006   -2.2599 H   0  0  0  0  0  0  0  0  0  0  0  0
    0.8719   -2.9208   -0.5068 H   0  0  0  0  0  0  0  0  0  0  0  0
   -1.1152   -1.2954   -2.2227 H   0  0  0  0  0  0  0  0  0  0  0  0
   -0.1876    0.2052   -2.2365 H   0  0  0  0  0  0  0  0  0  0  0  0
    0.6090   -1.3660   -2.4354 H   0  0  0  0  0  0  0  0  0  0  0  0
    6.1311    3.7775   -0.1660 H   0  0  0  0  0  0  0  0  0  0  0  0
    1.2316   -1.9389    1.9232 H   0  0  0  0  0  0  0  0  0  0  0  0
   -0.4391   -2.4971    2.2056 H   0  0  0  0  0  0  0  0  0  0  0  0
   -4.4217   -1.2010   -0.5968 H   0  0  0  0  0  0  0  0  0  0  0  0
   -1.9645    1.7478    2.5987 H   0  0  0  0  0  0  0  0  0  0  0  0
    4.5764   -3.8983   -0.3803 H   0  0  0  0  0  0  0  0  0  0  0  0
    4.4404   -4.3547   -2.0904 H   0  0  0  0  0  0  0  0  0  0  0  0
    2.9966   -4.4215   -1.0586 H   0  0  0  0  0  0  0  0  0  0  0  0
   -3.4091    2.6901   -1.2256 H   0  0  0  0  0  0  0  0  0  0  0  0
   -2.0643    1.6410   -1.1032 H   0  0  0  0  0  0  0  0  0  0  0  0
    1.6247   -5.2674    3.1418 H   0  0  0  0  0  0  0  0  0  0  0  0
    0.3769   -4.1449    3.7259 H   0  0  0  0  0  0  0  0  0  0  0  0
    2.0536   -3.5695    3.4428 H   0  0  0  0  0  0  0  0  0  0  0  0
   -6.2734   -0.5222    0.1802 H   0  0  0  0  0  0  0  0  0  0  0  0
   -5.2621   -0.3336    1.6398 H   0  0  0  0  0  0  0  0  0  0  0  0
   -6.7103    0.6304    1.4205 H   0  0  0  0  0  0  0  0  0  0  0  0
   -3.7965    2.9988    0.8927 H   0  0  0  0  0  0  0  0  0  0  0  0
   -4.3865    1.9293    2.1805 H   0  0  0  0  0  0  0  0  0  0  0  0
   -5.4712    3.0568    1.4256 H   0  0  0  0  0  0  0  0  0  0  0  0
   -6.1615    1.2386   -1.6949 H   0  0  0  0  0  0  0  0  0  0  0  0
   -5.4695    2.8415   -1.3678 H   0  0  0  0  0  0  0  0  0  0  0  0
   -6.8767    2.2954   -0.4884 H   0  0  0  0  0  0  0  0  0  0  0  0
   -2.9279    0.1774   -2.9239 H   0  0  0  0  0  0  0  0  0  0  0  0
   -4.3836    1.1711   -3.0500 H   0  0  0  0  0  0  0  0  0  0  0  0
   -2.7884    1.7476   -4.5380 H   0  0  0  0  0  0  0  0  0  0  0  0
  1 13  1  0  0  0  0
  1 56  1  0  0  0  0
  2 19  1  0  0  0  0
  2 30  1  0  0  0  0
  3 22  1  0  0  0  0
  3 29  1  0  0  0  0
  4 24  2  0  0  0  0
  5 26  1  0  0  0  0
  5 60  1  0  0  0  0
  6 28  1  0  0  0  0
  6 35  1  0  0  0  0
  7 29  2  0  0  0  0
  8 30  2  0  0  0  0
  9 39  1  0  0  0  0
  9 80  1  0  0  0  0
 10 31  1  0  0  0  0
 10 33  1  0  0  0  0
 10 34  1  0  0  0  0
 11 12  1  0  0  0  0
 11 13  1  0  0  0  0
 11 14  1  0  0  0  0
 11 21  1  0  0  0  0
 12 15  1  0  0  0  0
 12 16  1  0  0  0  0
 12 40  1  0  0  0  0
 13 17  1  0  0  0  0
 13 41  1  0  0  0  0
 14 19  1  0  0  0  0
 14 42  1  0  0  0  0
 14 43  1  0  0  0  0
 15 17  1  0  0  0  0
 15 44  1  0  0  0  0
 15 45  1  0  0  0  0
 16 18  2  0  0  0  0
 16 24  1  0  0  0  0
 17 46  1  0  0  0  0
 17 47  1  0  0  0  0
 18 19  1  0  0  0  0
 18 20  1  0  0  0  0
 19 48  1  0  0  0  0
 20 22  1  0  0  0  0
 20 23  1  0  0  0  0
 20 25  1  0  0  0  0
 21 49  1  0  0  0  0
 21 50  1  0  0  0  0
 21 51  1  0  0  0  0
 22 28  1  0  0  0  0
 22 52  1  0  0  0  0
 23 26  2  0  0  0  0
 23 27  1  0  0  0  0
 24 26  1  0  0  0  0
 25 53  1  0  0  0  0
 25 54  1  0  0  0  0
 25 55  1  0  0  0  0
 27 29  1  0  0  0  0
 27 31  2  0  0  0  0
 28 57  1  0  0  0  0
 28 58  1  0  0  0  0
 30 32  1  0  0  0  0
 31 59  1  0  0  0  0
 32 61  1  0  0  0  0
 32 62  1  0  0  0  0
 32 63  1  0  0  0  0
 33 36  1  0  0  0  0
 33 37  1  0  0  0  0
 33 38  1  0  0  0  0
 34 39  1  0  0  0  0
 34 64  1  0  0  0  0
 34 65  1  0  0  0  0
 35 66  1  0  0  0  0
 35 67  1  0  0  0  0
 35 68  1  0  0  0  0
 36 69  1  0  0  0  0
 36 70  1  0  0  0  0
 36 71  1  0  0  0  0
 37 72  1  0  0  0  0
 37 73  1  0  0  0  0
 37 74  1  0  0  0  0
 38 75  1  0  0  0  0
 38 76  1  0  0  0  0
 38 77  1  0  0  0  0
 39 78  1  0  0  0  0
 39 79  1  0  0  0  0
M  END
> <PUBCHEM_COMPOUND_CID>
24807809

> <PUBCHEM_CONFORMER_RMSD>
1

> <PUBCHEM_CONFORMER_DIVERSEORDER>
1

> <PUBCHEM_MMFF94_PARTIAL_CHARGES>
34
1 -0.68
10 -0.84
12 0.14
13 0.28
16 -0.12
18 -0.28
19 0.42
2 -0.43
20 0.28
22 0.28
23 -0.14
24 0.54
26 0.09
27 0.01
28 0.28
29 0.71
3 -0.43
30 0.66
31 -0.05
32 0.06
33 0.37
34 0.37
35 0.28
39 0.28
4 -0.57
5 -0.53
56 0.4
59 0.15
6 -0.56
60 0.45
7 -0.57
8 -0.57
80 0.4
9 -0.68

> <PUBCHEM_EFFECTIVE_ROTOR_COUNT>
9.4

> <PUBCHEM_PHARMACOPHORE_FEATURES>
15
1 1 acceptor
1 1 donor
1 10 cation
1 4 acceptor
1 5 donor
1 6 acceptor
1 7 acceptor
1 8 acceptor
1 9 acceptor
1 9 donor
4 33 36 37 38 hydrophobe
5 11 12 13 15 17 rings
6 11 12 14 16 18 19 rings
6 16 18 20 23 24 26 rings
6 3 20 22 23 27 29 rings

> <PUBCHEM_HEAVY_ATOM_COUNT>
39

> <PUBCHEM_ATOM_DEF_STEREO_COUNT>
6

> <PUBCHEM_ATOM_UDEF_STEREO_COUNT>
0

> <PUBCHEM_BOND_DEF_STEREO_COUNT>
1

> <PUBCHEM_BOND_UDEF_STEREO_COUNT>
0

> <PUBCHEM_ISOTOPIC_ATOM_COUNT>
0

> <PUBCHEM_COMPONENT_COUNT>
1

> <PUBCHEM_CACTVS_TAUTO_COUNT>
2

> <PUBCHEM_CONFORMER_ID>
017A898100000001

> <PUBCHEM_MMFF94_ENERGY>
149.0648

> <PUBCHEM_FEATURE_SELFOVERLAP>
76.228

> <PUBCHEM_SHAPE_FINGERPRINT>
10165383 225 18409730686252330689
10675989 125 18343865511136613704
10930396 42 18122887748236913818
1100329 8 17984722033813765058
11135926 11 18129678486278171744
11578080 2 18336557087347526492
12788726 201 17903908204003176651
13782708 43 18335711512078698523
140371 6 17915755171183175222
14068700 675 17557139510992381506
14790565 3 18129114329365198393
15775530 1 18046651133259794298
17980427 26 18335686244195324110
18681886 176 17986107413885595082
20600515 1 17767373839178574587
21033648 29 18187093887435766508
21987440 362 16452024716565030564
23559900 14 18201723933884771118
283562 15 18046896358722965947
3298306 158 17986956439147122596
376196 1 18269826691966113296
4058900 60 18334583455581042560
469060 322 17678171797406147139
5081480 168 18339929190757654444
5252454 2 18335695044777927005
5265222 85 17765442328821169532
57527295 17 17704065244188903189
6086070 43 17978498738293484581
6669772 16 18410856568530658002
9981440 41 17984417710048987210

> <PUBCHEM_SHAPE_MULTIPOLES>
744.8
10.51
5.32
2.52
6.79
3.16
-0.61
-7.34
-2.73
-5.53
1.84
0.11
0.31
1.85

> <PUBCHEM_SHAPE_SELFOVERLAP>
1589.118

> <PUBCHEM_SHAPE_VOLUME>
412.6

> <PUBCHEM_COORDINATE_TYPE>
2
5
10

$$$$
