46224697
  -OEChem-10062122033D

 53 58  0     0  0  0  0  0  0999 V2000
    3.4225    1.2536    0.6314 S   0  0  0  0  0  0  0  0  0  0  0  0
   -3.8944    0.0818   -0.9920 N   0  0  0  0  0  0  0  0  0  0  0  0
   -1.8650    1.8244    1.3002 N   0  0  0  0  0  0  0  0  0  0  0  0
    2.7900   -3.0035    1.0193 N   0  0  0  0  0  0  0  0  0  0  0  0
   -3.8910    3.1485    1.0434 N   0  0  0  0  0  0  0  0  0  0  0  0
    2.3675   -4.1791    1.5138 N   0  0  0  0  0  0  0  0  0  0  0  0
   -8.5997   -1.3377   -0.9930 N   0  0  0  0  0  0  0  0  0  0  0  0
   -2.1612    3.8310    2.4645 N   0  0  0  0  0  0  0  0  0  0  0  0
   -1.8844   -0.2624   -0.0953 C   0  0  0  0  0  0  0  0  0  0  0  0
   -3.6598    1.1440   -0.1569 C   0  0  0  0  0  0  0  0  0  0  0  0
   -5.0829   -0.1161   -1.7922 C   0  0  0  0  0  0  0  0  0  0  0  0
   -0.6317   -0.9156    0.1688 C   0  0  0  0  0  0  0  0  0  0  0  0
   -2.4066    0.9504    0.4164 C   0  0  0  0  0  0  0  0  0  0  0  0
   -2.8244   -0.7769   -0.9616 C   0  0  0  0  0  0  0  0  0  0  0  0
    1.8019   -0.8593    0.1288 C   0  0  0  0  0  0  0  0  0  0  0  0
   -6.2563   -0.6208   -0.9484 C   0  0  0  0  0  0  0  0  0  0  0  0
    0.5646   -0.2547   -0.1157 C   0  0  0  0  0  0  0  0  0  0  0  0
    1.7813   -2.1474    0.6680 C   0  0  0  0  0  0  0  0  0  0  0  0
    0.6049   -2.8282    0.9606 C   0  0  0  0  0  0  0  0  0  0  0  0
   -0.6301   -2.2075    0.7094 C   0  0  0  0  0  0  0  0  0  0  0  0
    3.0557   -0.2163   -0.1496 C   0  0  0  0  0  0  0  0  0  0  0  0
   -4.4089    2.2619    0.1657 C   0  0  0  0  0  0  0  0  0  0  0  0
   -7.4909   -0.8662   -1.8142 C   0  0  0  0  0  0  0  0  0  0  0  0
    1.0376   -4.0687    1.4766 C   0  0  0  0  0  0  0  0  0  0  0  0
    4.0647   -0.6184   -0.9922 C   0  0  0  0  0  0  0  0  0  0  0  0
    5.1746    0.2914   -1.0087 C   0  0  0  0  0  0  0  0  0  0  0  0
    4.9529    1.3756   -0.1538 C   0  0  0  0  0  0  0  0  0  0  0  0
   -2.6672    2.8791    1.5504 C   0  0  0  0  0  0  0  0  0  0  0  0
    6.3927    0.2454   -1.7294 C   0  0  0  0  0  0  0  0  0  0  0  0
    5.9060    2.4020   -0.0035 C   0  0  0  0  0  0  0  0  0  0  0  0
    7.3401    1.2619   -1.5826 C   0  0  0  0  0  0  0  0  0  0  0  0
    7.0973    2.3279   -0.7281 C   0  0  0  0  0  0  0  0  0  0  0  0
   -5.3235    0.8380   -2.2748 H   0  0  0  0  0  0  0  0  0  0  0  0
   -4.8415   -0.8327   -2.5859 H   0  0  0  0  0  0  0  0  0  0  0  0
   -2.8237   -1.6793   -1.5600 H   0  0  0  0  0  0  0  0  0  0  0  0
   -5.9675   -1.5500   -0.4393 H   0  0  0  0  0  0  0  0  0  0  0  0
   -6.4957    0.1047   -0.1610 H   0  0  0  0  0  0  0  0  0  0  0  0
    0.5353    0.7459   -0.5468 H   0  0  0  0  0  0  0  0  0  0  0  0
   -1.5559   -2.7284    0.9387 H   0  0  0  0  0  0  0  0  0  0  0  0
   -5.3872    2.4775   -0.2413 H   0  0  0  0  0  0  0  0  0  0  0  0
   -7.2699   -1.6100   -2.5875 H   0  0  0  0  0  0  0  0  0  0  0  0
   -7.7878    0.0605   -2.3168 H   0  0  0  0  0  0  0  0  0  0  0  0
    3.7880   -2.8489    0.9501 H   0  0  0  0  0  0  0  0  0  0  0  0
    0.4372   -4.8964    1.8269 H   0  0  0  0  0  0  0  0  0  0  0  0
    4.0233   -1.5260   -1.5834 H   0  0  0  0  0  0  0  0  0  0  0  0
    6.5972   -0.5835   -2.4026 H   0  0  0  0  0  0  0  0  0  0  0  0
   -9.3983   -1.5460   -1.5909 H   0  0  0  0  0  0  0  0  0  0  0  0
   -8.3441   -2.2152   -0.5419 H   0  0  0  0  0  0  0  0  0  0  0  0
    5.7246    3.2402    0.6632 H   0  0  0  0  0  0  0  0  0  0  0  0
    8.2707    1.2153   -2.1411 H   0  0  0  0  0  0  0  0  0  0  0  0
    7.8401    3.1137   -0.6204 H   0  0  0  0  0  0  0  0  0  0  0  0
   -1.2506    3.6866    2.8784 H   0  0  0  0  0  0  0  0  0  0  0  0
   -2.7161    4.6442    2.6927 H   0  0  0  0  0  0  0  0  0  0  0  0
  1 21  1  0  0  0  0
  1 27  1  0  0  0  0
  2 10  1  0  0  0  0
  2 11  1  0  0  0  0
  2 14  1  0  0  0  0
  3 13  2  0  0  0  0
  3 28  1  0  0  0  0
  4  6  1  0  0  0  0
  4 18  1  0  0  0  0
  4 43  1  0  0  0  0
  5 22  1  0  0  0  0
  5 28  2  0  0  0  0
  6 24  2  0  0  0  0
  7 23  1  0  0  0  0
  7 47  1  0  0  0  0
  7 48  1  0  0  0  0
  8 28  1  0  0  0  0
  8 52  1  0  0  0  0
  8 53  1  0  0  0  0
  9 12  1  0  0  0  0
  9 13  1  0  0  0  0
  9 14  2  0  0  0  0
 10 13  1  0  0  0  0
 10 22  2  0  0  0  0
 11 16  1  0  0  0  0
 11 33  1  0  0  0  0
 11 34  1  0  0  0  0
 12 17  1  0  0  0  0
 12 20  2  0  0  0  0
 14 35  1  0  0  0  0
 15 17  2  0  0  0  0
 15 18  1  0  0  0  0
 15 21  1  0  0  0  0
 16 23  1  0  0  0  0
 16 36  1  0  0  0  0
 16 37  1  0  0  0  0
 17 38  1  0  0  0  0
 18 19  2  0  0  0  0
 19 20  1  0  0  0  0
 19 24  1  0  0  0  0
 20 39  1  0  0  0  0
 21 25  2  0  0  0  0
 22 40  1  0  0  0  0
 23 41  1  0  0  0  0
 23 42  1  0  0  0  0
 24 44  1  0  0  0  0
 25 26  1  0  0  0  0
 25 45  1  0  0  0  0
 26 27  1  0  0  0  0
 26 29  2  0  0  0  0
 27 30  2  0  0  0  0
 29 31  1  0  0  0  0
 29 46  1  0  0  0  0
 30 32  1  0  0  0  0
 30 49  1  0  0  0  0
 31 32  2  0  0  0  0
 31 50  1  0  0  0  0
 32 51  1  0  0  0  0
M  END
> <PUBCHEM_COMPOUND_CID>
46224697

> <PUBCHEM_CONFORMER_RMSD>
0.8

> <PUBCHEM_CONFORMER_DIVERSEORDER>
1
51
96
56
67
5
15
33
88
41
2
40
95
10
85
30
91
101
60
42
61
46
45
9
98
12
23
82
31
97
21
84
14
4
24
106
69
47
78
26
50
94
70
18
6
8
57
49
11
32
87
3
77
104
53
48
20
76
86
92
7
22
93
34
36
64
62
16
35
81
25
90
52
103
73
19
38
99
44
28
58
75
29
37
83
13
59
55
100
43
27
105
17
54
89
68
65
66
39
72
74
71
63
80
102
79

> <PUBCHEM_MMFF94_PARTIAL_CHARGES>
44
1 -0.08
10 -0.15
11 0.26
12 0.05
13 0.26
14 -0.3
15 0.05
17 -0.15
18 -0.15
2 0.05
20 -0.15
21 -0.01
22 0.16
23 0.27
24 0.14
25 -0.15
27 0.04
28 0.72
29 -0.15
3 -0.57
30 -0.15
31 -0.15
32 -0.15
35 0.15
38 0.15
39 0.15
4 0.3
40 0.15
43 0.27
44 0.15
45 0.15
46 0.15
47 0.36
48 0.36
49 0.15
5 -0.62
50 0.15
51 0.15
52 0.4
53 0.4
6 -0.71
7 -0.99
8 -0.9
9 -0.05

> <PUBCHEM_EFFECTIVE_ROTOR_COUNT>
5

> <PUBCHEM_PHARMACOPHORE_FEATURES>
14
1 2 cation
1 3 acceptor
1 4 donor
1 6 acceptor
1 7 cation
1 7 donor
1 8 donor
4 3 5 8 28 cation
5 1 21 25 26 27 rings
5 2 9 10 13 14 rings
5 4 6 18 19 24 rings
6 12 15 17 18 19 20 rings
6 26 27 29 30 31 32 rings
6 3 5 10 13 22 28 rings

> <PUBCHEM_HEAVY_ATOM_COUNT>
32

> <PUBCHEM_ATOM_DEF_STEREO_COUNT>
0

> <PUBCHEM_ATOM_UDEF_STEREO_COUNT>
0

> <PUBCHEM_BOND_DEF_STEREO_COUNT>
0

> <PUBCHEM_BOND_UDEF_STEREO_COUNT>
0

> <PUBCHEM_ISOTOPIC_ATOM_COUNT>
0

> <PUBCHEM_COMPONENT_COUNT>
1

> <PUBCHEM_CACTVS_TAUTO_COUNT>
6

> <PUBCHEM_CONFORMER_ID>
02C1553900000001

> <PUBCHEM_MMFF94_ENERGY>
68.8264

> <PUBCHEM_FEATURE_SELFOVERLAP>
71.315

> <PUBCHEM_SHAPE_FINGERPRINT>
10670039 82 18341897372743596316
10794284 68 17774178850894610153
11049842 53 16984624871456209223
11062273 23 17753342151385507490
11135609 187 18187358827378874157
12107698 1 17917995005239157300
12124843 1 18272377464549083300
12373685 5 15285628941703767995
12390115 104 18261973915643869914
12788726 201 18201994392565714575
13540713 5 18196370312757723659
13673619 4 14261353569921525019
13726171 33 17775013340890237561
13782708 43 14692275266622798197
14664723 55 18115042904407497476
14675019 173 13830137213211480707
14767858 380 18411975893095537957
14790565 3 18335149644435644272
14931854 50 18342453746637766725
15064981 194 18120109508909948348
15183329 4 18201729436128072748
15351339 4 18412822478452723248
15685185 35 18189619530364852492
16991971 28 17631157762813792847
18365409 1 18190461764798795423
18608769 82 18338528558893367635
19319366 153 18337093636464708463
20554085 129 18337655521534447714
20642791 35 17987502870930636793
21033648 144 18040719129950166310
21049683 271 18338509855344820269
21792964 463 18116169778956067389
221357 26 17846780736856947768
23569917 315 18334011675312907226
25147074 1 18268144249738424387
283562 15 18117283759753559714
3103668 31 17828766475713449675
312425 54 11747219104107655308
335352 9 18261114059492706494
3552219 110 18413394224952794589
38570 142 18195551215476543600
4098825 35 17417264146958497052
4258327 124 17313959652303649702
4516262 110 18335143037937498085
45377200 153 17202473593793015279
469060 322 17969808421477383811
484989 97 18118969337412596467
563151 74 15213284349266435720
57527295 17 17914076230434825814
5912855 24 18341055117146398227
6058803 2 18052252891483561731
7970288 3 10663816352449969780
9981440 41 18333734645547142202

> <PUBCHEM_SHAPE_MULTIPOLES>
627.53
18.75
4.3
1.73
4.23
1.93
0.09
-8.66
-13.62
-0.94
3.79
0.94
-0.35
-3.64

> <PUBCHEM_SHAPE_SELFOVERLAP>
1409.897

> <PUBCHEM_SHAPE_VOLUME>
335.7

> <PUBCHEM_COORDINATE_TYPE>
2
5
10

$$$$
