44410829
  -OEChem-10052120443D

 48 51  0     0  0  0  0  0  0999 V2000
    5.8923    3.0106    1.4106 Cl  0  0  0  0  0  0  0  0  0  0  0  0
    3.4973    1.4123    2.0739 F   0  0  0  0  0  0  0  0  0  0  0  0
   -4.1099    4.7204    0.5347 O   0  0  0  0  0  0  0  0  0  0  0  0
   -3.8564   -2.5848    0.3745 O   0  0  0  0  0  0  0  0  0  0  0  0
   -3.7181    0.6327    0.0077 N   0  0  0  0  0  0  0  0  0  0  0  0
   -3.1523    4.7011   -1.5439 N   0  0  0  0  0  0  0  0  0  0  0  0
    0.5733   -4.0272   -0.6020 N   0  0  0  0  0  0  0  0  0  0  0  0
    2.1255   -0.3276    0.4144 N   0  0  0  0  0  0  0  0  0  0  0  0
    2.4461   -2.5344   -0.3354 N   0  0  0  0  0  0  0  0  0  0  0  0
   -4.0518    2.5910   -0.6834 C   0  0  0  0  0  0  0  0  0  0  0  0
   -2.8591    1.6243   -0.6844 C   0  0  0  0  0  0  0  0  0  0  0  0
   -4.5449    1.7582    0.5083 C   0  0  0  0  0  0  0  0  0  0  0  0
   -2.9802    0.0299    1.1185 C   0  0  0  0  0  0  0  0  0  0  0  0
   -3.7887    4.0955   -0.4804 C   0  0  0  0  0  0  0  0  0  0  0  0
   -2.0481   -1.0434    0.6641 C   0  0  0  0  0  0  0  0  0  0  0  0
   -0.6837   -0.7814    0.5916 C   0  0  0  0  0  0  0  0  0  0  0  0
   -2.5247   -2.3015    0.3126 C   0  0  0  0  0  0  0  0  0  0  0  0
    0.2031   -1.7853    0.1650 C   0  0  0  0  0  0  0  0  0  0  0  0
   -1.6363   -3.2945   -0.1106 C   0  0  0  0  0  0  0  0  0  0  0  0
   -0.2660   -3.0598   -0.1927 C   0  0  0  0  0  0  0  0  0  0  0  0
    1.5780   -1.5887    0.0702 C   0  0  0  0  0  0  0  0  0  0  0  0
   -4.2567   -3.9001   -0.0043 C   0  0  0  0  0  0  0  0  0  0  0  0
    1.8835   -3.7121   -0.6512 C   0  0  0  0  0  0  0  0  0  0  0  0
    3.2564    0.3695   -0.0389 C   0  0  0  0  0  0  0  0  0  0  0  0
    3.9312    1.2415    0.8156 C   0  0  0  0  0  0  0  0  0  0  0  0
    3.7048    0.1888   -1.3473 C   0  0  0  0  0  0  0  0  0  0  0  0
    5.0545    1.9327    0.3614 C   0  0  0  0  0  0  0  0  0  0  0  0
    4.8279    0.8800   -1.8014 C   0  0  0  0  0  0  0  0  0  0  0  0
    5.5028    1.7520   -0.9470 C   0  0  0  0  0  0  0  0  0  0  0  0
   -4.6975    2.4366   -1.5634 H   0  0  0  0  0  0  0  0  0  0  0  0
   -2.5207    1.3113   -1.6774 H   0  0  0  0  0  0  0  0  0  0  0  0
   -1.9909    1.9993   -0.1265 H   0  0  0  0  0  0  0  0  0  0  0  0
   -4.2652    2.1617    1.4904 H   0  0  0  0  0  0  0  0  0  0  0  0
   -5.6206    1.5556    0.5158 H   0  0  0  0  0  0  0  0  0  0  0  0
   -3.6978   -0.4138    1.8225 H   0  0  0  0  0  0  0  0  0  0  0  0
   -2.4342    0.7734    1.7178 H   0  0  0  0  0  0  0  0  0  0  0  0
   -0.3279    0.2093    0.8620 H   0  0  0  0  0  0  0  0  0  0  0  0
   -2.8880    4.1866   -2.3778 H   0  0  0  0  0  0  0  0  0  0  0  0
   -2.9261    5.6899   -1.5241 H   0  0  0  0  0  0  0  0  0  0  0  0
   -1.9585   -4.2920   -0.3958 H   0  0  0  0  0  0  0  0  0  0  0  0
    1.7515    0.0420    1.2842 H   0  0  0  0  0  0  0  0  0  0  0  0
   -5.3452   -3.9481    0.1056 H   0  0  0  0  0  0  0  0  0  0  0  0
   -3.8383   -4.6592    0.6654 H   0  0  0  0  0  0  0  0  0  0  0  0
   -4.0368   -4.1024   -1.0582 H   0  0  0  0  0  0  0  0  0  0  0  0
    2.5544   -4.4956   -0.9819 H   0  0  0  0  0  0  0  0  0  0  0  0
    3.1886   -0.4735   -2.0371 H   0  0  0  0  0  0  0  0  0  0  0  0
    5.1752    0.7419   -2.8212 H   0  0  0  0  0  0  0  0  0  0  0  0
    6.3761    2.2844   -1.3152 H   0  0  0  0  0  0  0  0  0  0  0  0
  1 27  1  0  0  0  0
  2 25  1  0  0  0  0
  3 14  2  0  0  0  0
  4 17  1  0  0  0  0
  4 22  1  0  0  0  0
  5 11  1  0  0  0  0
  5 12  1  0  0  0  0
  5 13  1  0  0  0  0
  6 14  1  0  0  0  0
  6 38  1  0  0  0  0
  6 39  1  0  0  0  0
  7 20  1  0  0  0  0
  7 23  2  0  0  0  0
  8 21  1  0  0  0  0
  8 24  1  0  0  0  0
  8 41  1  0  0  0  0
  9 21  2  0  0  0  0
  9 23  1  0  0  0  0
 10 11  1  0  0  0  0
 10 12  1  0  0  0  0
 10 14  1  0  0  0  0
 10 30  1  0  0  0  0
 11 31  1  0  0  0  0
 11 32  1  0  0  0  0
 12 33  1  0  0  0  0
 12 34  1  0  0  0  0
 13 15  1  0  0  0  0
 13 35  1  0  0  0  0
 13 36  1  0  0  0  0
 15 16  2  0  0  0  0
 15 17  1  0  0  0  0
 16 18  1  0  0  0  0
 16 37  1  0  0  0  0
 17 19  2  0  0  0  0
 18 20  2  0  0  0  0
 18 21  1  0  0  0  0
 19 20  1  0  0  0  0
 19 40  1  0  0  0  0
 22 42  1  0  0  0  0
 22 43  1  0  0  0  0
 22 44  1  0  0  0  0
 23 45  1  0  0  0  0
 24 25  2  0  0  0  0
 24 26  1  0  0  0  0
 25 27  1  0  0  0  0
 26 28  2  0  0  0  0
 26 46  1  0  0  0  0
 27 29  2  0  0  0  0
 28 29  1  0  0  0  0
 28 47  1  0  0  0  0
 29 48  1  0  0  0  0
M  END
> <PUBCHEM_COMPOUND_CID>
44410829

> <PUBCHEM_CONFORMER_RMSD>
1

> <PUBCHEM_CONFORMER_DIVERSEORDER>
1
45
148
102
106
122
22
86
44
19
149
50
167
85
126
35
20
166
14
40
124
51
77
127
173
114
105
103
168
71
100
155
163
125
91
64
53
57
136
69
76
145
66
9
81
112
49
39
109
88
56
164
41
147
154
139
54
135
118
172
75
59
99
34
21
55
92
119
36
120
37
159
116
110
15
70
151
138
7
121
26
30
101
160
80
171
84
46
131
162
143
115
67
132
25
23
33
157
170
158
161
129
27
29
123
130
32
108
18
87
152
128
150
107
68
153
3
72
89
165
13
6
73
96
52
4
95
58
8
47
16
74
140
93
78
2
104
90
17
24
28
156
141
60
62
42
137
113
144
12
133
10
94
48
134
117
98
38
79
61
111
31
146
82
142
11
169
83
43
63
97
5
65

> <PUBCHEM_MMFF94_PARTIAL_CHARGES>
37
1 -0.18
10 0.05
11 0.21
12 0.21
13 0.41
14 0.58
15 -0.14
16 -0.15
17 0.08
19 -0.15
2 -0.19
20 0.31
21 0.41
22 0.28
23 0.47
24 0.1
25 0.19
26 -0.15
27 0.18
28 -0.15
29 -0.15
3 -0.57
37 0.15
38 0.37
39 0.37
4 -0.36
40 0.15
41 0.4
45 0.15
46 0.15
47 0.15
48 0.15
5 -0.69
6 -0.8
7 -0.62
8 -0.6
9 -0.62

> <PUBCHEM_EFFECTIVE_ROTOR_COUNT>
6.8

> <PUBCHEM_PHARMACOPHORE_FEATURES>
11
1 3 acceptor
1 4 acceptor
1 5 cation
1 6 donor
1 8 donor
3 7 9 23 cation
3 8 9 21 cation
4 5 10 11 12 rings
6 15 16 17 18 19 20 rings
6 24 25 26 27 28 29 rings
6 7 9 18 20 21 23 rings

> <PUBCHEM_HEAVY_ATOM_COUNT>
29

> <PUBCHEM_ATOM_DEF_STEREO_COUNT>
0

> <PUBCHEM_ATOM_UDEF_STEREO_COUNT>
0

> <PUBCHEM_BOND_DEF_STEREO_COUNT>
0

> <PUBCHEM_BOND_UDEF_STEREO_COUNT>
0

> <PUBCHEM_ISOTOPIC_ATOM_COUNT>
0

> <PUBCHEM_COMPONENT_COUNT>
1

> <PUBCHEM_CACTVS_TAUTO_COUNT>
6

> <PUBCHEM_CONFORMER_ID>
02A5A7CD00000001

> <PUBCHEM_MMFF94_ENERGY>
104.9624

> <PUBCHEM_FEATURE_SELFOVERLAP>
55.994

> <PUBCHEM_SHAPE_FINGERPRINT>
102385 1 18337952277736765423
10670039 82 18263935495848114222
10838868 217 17756118130719650208
10937287 8 18192990427162787293
11059048 146 18126298440767392552
11059845 2 18120063166809027896
12107183 9 18116698631184549410
12422481 6 17895184455884550300
12788726 201 17972891537791446916
13617811 41 18122064479397595191
13944108 23 16820529242032128909
14223995 32 18339637838031434104
14347329 18 18408328783062348960
14468879 13 18260840258661906097
14848178 96 18193274083635049397
15326921 28 18197474377431207168
15575132 122 18263084490484973391
15961568 22 17259333896402749472
16067690 210 17827627364486321928
16988056 13 17401194578465953404
1768 85 17978802203634950809
21033648 29 18129379466043319120
21033650 10 18116453581867361508
21133410 90 17902773495587538709
21315764 268 18127974324758887792
21859007 373 18412824707967835212
21860390 5 17624130495172458423
22393880 68 18342750610930698342
23559900 14 17981038613852417851
25019877 29 16984643902620224935
283562 15 18268993262174235195
376196 1 18337954463505237091
469060 322 18120956137622923211
508706 21 18269552904648669776
5252454 2 18342470205115462227
653340 110 18338234972261882356
7808743 9 18407763633436533249
9849439 229 18265044743961794417

> <PUBCHEM_SHAPE_MULTIPOLES>
554.76
12.48
6.75
1.27
11.22
2.65
-0.01
12.17
0.47
-8.95
-1.38
1.41
0.87
2.19

> <PUBCHEM_SHAPE_SELFOVERLAP>
1203.161

> <PUBCHEM_SHAPE_VOLUME>
305.3

> <PUBCHEM_COORDINATE_TYPE>
2
5
10

$$$$
