46894109
  -OEChem-10052115183D

 80 84  0     0  0  0  0  0  0999 V2000
    3.2293    5.7659    2.0895 O   0  0  0  0  0  0  0  0  0  0  0  0
    5.5102    4.0073   -1.9369 O   0  0  0  0  0  0  0  0  0  0  0  0
   -4.5192   -0.8460    2.7394 O   0  0  0  0  0  0  0  0  0  0  0  0
    4.4609   -4.5261   -1.9156 O   0  0  0  0  0  0  0  0  0  0  0  0
    4.7105    4.2333    0.2469 N   0  0  0  0  0  0  0  0  0  0  0  0
   -3.1247   -1.1771    0.8759 N   0  0  0  0  0  0  0  0  0  0  0  0
    2.3513   -4.9443   -1.0211 N   0  0  0  0  0  0  0  0  0  0  0  0
    4.6354   -2.0602   -0.7680 N   0  0  0  0  0  0  0  0  0  0  0  0
    3.6807    0.0576   -1.2266 N   0  0  0  0  0  0  0  0  0  0  0  0
   -8.0874    2.0965   -1.7289 C   0  0  0  0  0  0  0  0  0  0  0  0
   -7.1006    1.3665   -0.8819 C   0  0  0  0  0  0  0  0  0  0  0  0
   -7.8340    3.6356   -1.6936 C   0  0  0  0  0  0  0  0  0  0  0  0
   -9.5474    1.8489   -1.2378 C   0  0  0  0  0  0  0  0  0  0  0  0
   -8.0871    1.7092   -3.2451 C   0  0  0  0  0  0  0  0  0  0  0  0
    4.2782    3.6506    1.5229 C   0  0  0  0  0  0  0  0  0  0  0  0
    4.7991    5.6928    0.2490 C   0  0  0  0  0  0  0  0  0  0  0  0
   -7.0194    1.6359    0.4844 C   0  0  0  0  0  0  0  0  0  0  0  0
   -6.2576    0.4153   -1.4566 C   0  0  0  0  0  0  0  0  0  0  0  0
    3.0218    4.3527    2.0246 C   0  0  0  0  0  0  0  0  0  0  0  0
    3.5161    6.3020    0.7949 C   0  0  0  0  0  0  0  0  0  0  0  0
   -5.2522    0.0027    0.7012 C   0  0  0  0  0  0  0  0  0  0  0  0
   -6.0952    0.9539    1.2758 C   0  0  0  0  0  0  0  0  0  0  0  0
   -5.3333   -0.2665   -0.6651 C   0  0  0  0  0  0  0  0  0  0  0  0
    5.0900    3.5174   -0.8896 C   0  0  0  0  0  0  0  0  0  0  0  0
    0.1360   -2.9027    1.1680 C   0  0  0  0  0  0  0  0  0  0  0  0
   -0.9452   -2.2192    0.6116 C   0  0  0  0  0  0  0  0  0  0  0  0
    1.2993   -3.3000    0.3510 C   0  0  0  0  0  0  0  0  0  0  0  0
   -2.0304   -1.8613    1.4116 C   0  0  0  0  0  0  0  0  0  0  0  0
   -4.2675   -0.7236    1.5453 C   0  0  0  0  0  0  0  0  0  0  0  0
    4.9939    2.0521   -0.8491 C   0  0  0  0  0  0  0  0  0  0  0  0
    3.5209   -2.8205   -0.5669 C   0  0  0  0  0  0  0  0  0  0  0  0
    2.4614   -2.4533    0.1708 C   0  0  0  0  0  0  0  0  0  0  0  0
    1.2936   -4.5028   -0.2464 C   0  0  0  0  0  0  0  0  0  0  0  0
    0.1322   -3.2283    2.5244 C   0  0  0  0  0  0  0  0  0  0  0  0
   -2.0342   -2.1868    2.7680 C   0  0  0  0  0  0  0  0  0  0  0  0
    3.4987   -4.1713   -1.2338 C   0  0  0  0  0  0  0  0  0  0  0  0
   -0.9489   -1.8684   -0.8451 C   0  0  0  0  0  0  0  0  0  0  0  0
    6.0634    1.2751   -0.4177 C   0  0  0  0  0  0  0  0  0  0  0  0
   -0.9529   -2.8703    3.3243 C   0  0  0  0  0  0  0  0  0  0  0  0
    4.7415   -0.6646   -0.8013 C   0  0  0  0  0  0  0  0  0  0  0  0
    3.8351    1.4008   -1.2395 C   0  0  0  0  0  0  0  0  0  0  0  0
    5.9429   -0.1099   -0.3903 C   0  0  0  0  0  0  0  0  0  0  0  0
    2.2347   -6.2689   -1.6227 C   0  0  0  0  0  0  0  0  0  0  0  0
   -8.5407    4.1710   -2.3381 H   0  0  0  0  0  0  0  0  0  0  0  0
   -7.9438    4.0453   -0.6835 H   0  0  0  0  0  0  0  0  0  0  0  0
   -6.8198    3.8710   -2.0374 H   0  0  0  0  0  0  0  0  0  0  0  0
  -10.2755    2.3618   -1.8769 H   0  0  0  0  0  0  0  0  0  0  0  0
   -9.7853    0.7787   -1.2481 H   0  0  0  0  0  0  0  0  0  0  0  0
   -9.7026    2.2120   -0.2159 H   0  0  0  0  0  0  0  0  0  0  0  0
   -8.8365    2.2867   -3.8001 H   0  0  0  0  0  0  0  0  0  0  0  0
   -7.1163    1.9129   -3.7117 H   0  0  0  0  0  0  0  0  0  0  0  0
   -8.3287    0.6496   -3.3892 H   0  0  0  0  0  0  0  0  0  0  0  0
    4.1024    2.5759    1.4480 H   0  0  0  0  0  0  0  0  0  0  0  0
    5.1033    3.8100    2.2270 H   0  0  0  0  0  0  0  0  0  0  0  0
    5.0088    6.0765   -0.7540 H   0  0  0  0  0  0  0  0  0  0  0  0
    5.6454    5.9512    0.8963 H   0  0  0  0  0  0  0  0  0  0  0  0
   -7.6626    2.3724    0.9574 H   0  0  0  0  0  0  0  0  0  0  0  0
   -6.2844    0.1615   -2.5105 H   0  0  0  0  0  0  0  0  0  0  0  0
    2.1633    4.1435    1.3753 H   0  0  0  0  0  0  0  0  0  0  0  0
    2.7731    4.0027    3.0312 H   0  0  0  0  0  0  0  0  0  0  0  0
    3.6274    7.3859    0.8966 H   0  0  0  0  0  0  0  0  0  0  0  0
    2.6666    6.1121    0.1281 H   0  0  0  0  0  0  0  0  0  0  0  0
   -6.0445    1.1825    2.3372 H   0  0  0  0  0  0  0  0  0  0  0  0
   -4.7257   -1.0253   -1.1489 H   0  0  0  0  0  0  0  0  0  0  0  0
   -3.0404   -0.9423   -0.1066 H   0  0  0  0  0  0  0  0  0  0  0  0
    2.4423   -1.4946    0.6823 H   0  0  0  0  0  0  0  0  0  0  0  0
    0.4575   -5.1893   -0.1514 H   0  0  0  0  0  0  0  0  0  0  0  0
    0.9663   -3.7610    2.9750 H   0  0  0  0  0  0  0  0  0  0  0  0
   -2.8329   -1.9550    3.4570 H   0  0  0  0  0  0  0  0  0  0  0  0
   -0.0620   -2.1862   -1.3974 H   0  0  0  0  0  0  0  0  0  0  0  0
   -1.0110   -0.7814   -0.9702 H   0  0  0  0  0  0  0  0  0  0  0  0
   -1.8043   -2.3384   -1.3436 H   0  0  0  0  0  0  0  0  0  0  0  0
    6.9934    1.7392   -0.1006 H   0  0  0  0  0  0  0  0  0  0  0  0
   -0.9552   -3.1257    4.3801 H   0  0  0  0  0  0  0  0  0  0  0  0
    5.4500   -2.5586   -1.1129 H   0  0  0  0  0  0  0  0  0  0  0  0
    2.9666    1.9535   -1.5847 H   0  0  0  0  0  0  0  0  0  0  0  0
    6.7729   -0.7227   -0.0539 H   0  0  0  0  0  0  0  0  0  0  0  0
    3.1205   -6.5195   -2.2124 H   0  0  0  0  0  0  0  0  0  0  0  0
    2.1185   -7.0133   -0.8286 H   0  0  0  0  0  0  0  0  0  0  0  0
    1.3584   -6.2879   -2.2784 H   0  0  0  0  0  0  0  0  0  0  0  0
  1 19  1  0  0  0  0
  1 20  1  0  0  0  0
  2 24  2  0  0  0  0
  3 29  2  0  0  0  0
  4 36  2  0  0  0  0
  5 15  1  0  0  0  0
  5 16  1  0  0  0  0
  5 24  1  0  0  0  0
  6 28  1  0  0  0  0
  6 29  1  0  0  0  0
  6 65  1  0  0  0  0
  7 33  1  0  0  0  0
  7 36  1  0  0  0  0
  7 43  1  0  0  0  0
  8 31  1  0  0  0  0
  8 40  1  0  0  0  0
  8 75  1  0  0  0  0
  9 40  2  0  0  0  0
  9 41  1  0  0  0  0
 10 11  1  0  0  0  0
 10 12  1  0  0  0  0
 10 13  1  0  0  0  0
 10 14  1  0  0  0  0
 11 17  2  0  0  0  0
 11 18  1  0  0  0  0
 12 44  1  0  0  0  0
 12 45  1  0  0  0  0
 12 46  1  0  0  0  0
 13 47  1  0  0  0  0
 13 48  1  0  0  0  0
 13 49  1  0  0  0  0
 14 50  1  0  0  0  0
 14 51  1  0  0  0  0
 14 52  1  0  0  0  0
 15 19  1  0  0  0  0
 15 53  1  0  0  0  0
 15 54  1  0  0  0  0
 16 20  1  0  0  0  0
 16 55  1  0  0  0  0
 16 56  1  0  0  0  0
 17 22  1  0  0  0  0
 17 57  1  0  0  0  0
 18 23  2  0  0  0  0
 18 58  1  0  0  0  0
 19 59  1  0  0  0  0
 19 60  1  0  0  0  0
 20 61  1  0  0  0  0
 20 62  1  0  0  0  0
 21 22  2  0  0  0  0
 21 23  1  0  0  0  0
 21 29  1  0  0  0  0
 22 63  1  0  0  0  0
 23 64  1  0  0  0  0
 24 30  1  0  0  0  0
 25 26  2  0  0  0  0
 25 27  1  0  0  0  0
 25 34  1  0  0  0  0
 26 28  1  0  0  0  0
 26 37  1  0  0  0  0
 27 32  1  0  0  0  0
 27 33  2  0  0  0  0
 28 35  2  0  0  0  0
 30 38  1  0  0  0  0
 30 41  2  0  0  0  0
 31 32  2  0  0  0  0
 31 36  1  0  0  0  0
 32 66  1  0  0  0  0
 33 67  1  0  0  0  0
 34 39  2  0  0  0  0
 34 68  1  0  0  0  0
 35 39  1  0  0  0  0
 35 69  1  0  0  0  0
 37 70  1  0  0  0  0
 37 71  1  0  0  0  0
 37 72  1  0  0  0  0
 38 42  2  0  0  0  0
 38 73  1  0  0  0  0
 39 74  1  0  0  0  0
 40 42  1  0  0  0  0
 41 76  1  0  0  0  0
 42 77  1  0  0  0  0
 43 78  1  0  0  0  0
 43 79  1  0  0  0  0
 43 80  1  0  0  0  0
M  END
> <PUBCHEM_COMPOUND_CID>
46894109

> <PUBCHEM_CONFORMER_RMSD>
1.2

> <PUBCHEM_CONFORMER_DIVERSEORDER>
1
100
55
89
93
79
110
21
106
45
65
66
54
99
107
74
87
28
35
98
85
113
92
30
109
86
90
75
112
73
72
61
111
96
70
7
71
20
78
4
51
23
17
94
16
57
25
95
8
101
108
88
60
11
59
15
82
52
10
33
56
81
49
76
80
97
102
27
44
41
42
50
36
91
68
104
43
29
34
3
58
103
26
38
31
105
9
84
63
40
47
46
12
18
62
32
5
19
69
67
13
22
83
14
39
6
77
53
64
37
24
48
2

> <PUBCHEM_MMFF94_PARTIAL_CHARGES>
54
1 -0.56
10 0.14
11 -0.14
15 0.3
16 0.3
17 -0.15
18 -0.15
19 0.28
2 -0.57
20 0.28
21 0.09
22 -0.15
23 -0.15
24 0.54
25 0.03
26 -0.14
27 -0.03
28 0.12
29 0.54
3 -0.57
30 0.09
31 0.11
32 -0.15
33 -0.04
34 -0.15
35 -0.15
36 0.62
37 0.14
38 -0.15
39 -0.15
4 -0.57
40 0.41
41 0.16
42 -0.15
43 0.3
5 -0.66
57 0.15
58 0.15
6 -0.55
63 0.15
64 0.15
65 0.37
66 0.15
67 0.15
68 0.15
69 0.15
7 -0.47
73 0.15
74 0.15
75 0.4
76 0.15
77 0.15
8 -0.6
9 -0.62

> <PUBCHEM_EFFECTIVE_ROTOR_COUNT>
10.2

> <PUBCHEM_PHARMACOPHORE_FEATURES>
13
1 1 acceptor
1 2 acceptor
1 3 acceptor
1 4 acceptor
1 6 donor
1 8 donor
3 8 9 40 cation
4 10 12 13 14 hydrophobe
6 1 5 15 16 19 20 rings
6 11 17 18 21 22 23 rings
6 25 26 28 34 35 39 rings
6 7 27 31 32 33 36 rings
6 9 30 38 40 41 42 rings

> <PUBCHEM_HEAVY_ATOM_COUNT>
43

> <PUBCHEM_ATOM_DEF_STEREO_COUNT>
0

> <PUBCHEM_ATOM_UDEF_STEREO_COUNT>
0

> <PUBCHEM_BOND_DEF_STEREO_COUNT>
0

> <PUBCHEM_BOND_UDEF_STEREO_COUNT>
0

> <PUBCHEM_ISOTOPIC_ATOM_COUNT>
0

> <PUBCHEM_COMPONENT_COUNT>
1

> <PUBCHEM_CACTVS_TAUTO_COUNT>
10

> <PUBCHEM_CONFORMER_ID>
02CB8C1D00000001

> <PUBCHEM_MMFF94_ENERGY>
159.9621

> <PUBCHEM_FEATURE_SELFOVERLAP>
65.973

> <PUBCHEM_SHAPE_FINGERPRINT>
10556698 54 18264486174901291589
11146346 40 18271515430464027185
11386260 185 18197221351790487278
11399510 152 17389116839073511282
11478447 147 18410005521072374317
11479125 193 18408880767847641333
11621639 179 18261686939299155838
12539747 72 17385729101919414827
15082195 135 18270396092807595019
15274700 147 17400372637842408831
15320295 198 18262252070188952174
15400415 2 18125733532656939960
15705408 1 16765664793181089695
15721738 15 18343302604195993512
19053607 189 17896049895440854836
19304152 47 17181104748346048784
21033648 29 17168158806009057427
23516275 100 18040715853249654605
23569914 2 17897138365388265845
3146122 72 18335134277227347189
3525247 18 18190741023757471621
376196 1 18335430122658819538
4760202 170 18194111928975685469
56611832 157 12292507142642917817

> <PUBCHEM_SHAPE_MULTIPOLES>
836.54
23.21
10.13
2.76
52.64
5.39
-1.17
29.21
14.82
-21.49
-0.34
2.76
-0.71
7.48

> <PUBCHEM_SHAPE_SELFOVERLAP>
1813.644

> <PUBCHEM_SHAPE_VOLUME>
455

> <PUBCHEM_COORDINATE_TYPE>
2
5
10

$$$$
