49830892
  -OEChem-10052115183D

 42 44  0     1  0  0  0  0  0999 V2000
    0.8567   -2.6783    0.2075 F   0  0  0  0  0  0  0  0  0  0  0  0
    6.9807    1.0255   -0.0610 O   0  0  0  0  0  0  0  0  0  0  0  0
   -4.0946   -1.4271    0.6361 O   0  0  0  0  0  0  0  0  0  0  0  0
   -6.2653   -0.1448   -0.0430 O   0  0  0  0  0  0  0  0  0  0  0  0
   -6.1715    2.0657    0.5363 O   0  0  0  0  0  0  0  0  0  0  0  0
    2.0397   -0.3752   -0.5967 N   0  0  3  0  0  0  0  0  0  0  0  0
    4.7300    0.7548    0.4698 N   0  0  0  0  0  0  0  0  0  0  0  0
   -0.0155    0.7577   -0.5847 N   0  0  0  0  0  0  0  0  0  0  0  0
   -2.1168    1.8879   -0.5651 N   0  0  0  0  0  0  0  0  0  0  0  0
    4.2567    0.4000   -0.8470 C   0  0  1  0  0  0  0  0  0  0  0  0
    4.2319   -1.1104   -1.0459 C   0  0  0  0  0  0  0  0  0  0  0  0
    2.7909    0.7994   -1.0415 C   0  0  0  0  0  0  0  0  0  0  0  0
    2.9051   -1.5379   -0.4167 C   0  0  0  0  0  0  0  0  0  0  0  0
    0.6776   -0.3870   -0.3830 C   0  0  0  0  0  0  0  0  0  0  0  0
    0.1091   -1.5806    0.0269 C   0  0  0  0  0  0  0  0  0  0  0  0
   -1.2615   -1.6068    0.2460 C   0  0  0  0  0  0  0  0  0  0  0  0
    6.0571    1.0379    0.7486 C   0  0  0  0  0  0  0  0  0  0  0  0
   -2.0040   -0.4439    0.0467 C   0  0  0  0  0  0  0  0  0  0  0  0
   -1.3531    0.7268   -0.3698 C   0  0  0  0  0  0  0  0  0  0  0  0
   -1.8575   -2.9034    0.6879 C   0  0  0  0  0  0  0  0  0  0  0  0
   -3.4746   -0.4360    0.2720 C   0  0  0  0  0  0  0  0  0  0  0  0
    6.2723    1.4018    2.1933 C   0  0  0  0  0  0  0  0  0  0  0  0
   -4.1919    0.8492    0.0347 C   0  0  0  0  0  0  0  0  0  0  0  0
   -3.4676    1.9034   -0.3615 C   0  0  0  0  0  0  0  0  0  0  0  0
   -5.6339    1.0215    0.2102 C   0  0  0  0  0  0  0  0  0  0  0  0
    4.9005    0.8885   -1.5863 H   0  0  0  0  0  0  0  0  0  0  0  0
    5.0850   -1.6324   -0.6017 H   0  0  0  0  0  0  0  0  0  0  0  0
    4.2159   -1.3368   -2.1197 H   0  0  0  0  0  0  0  0  0  0  0  0
    2.5321    1.6980   -0.4701 H   0  0  0  0  0  0  0  0  0  0  0  0
    2.5808    0.9778   -2.1025 H   0  0  0  0  0  0  0  0  0  0  0  0
    2.5677   -2.4243   -0.9640 H   0  0  0  0  0  0  0  0  0  0  0  0
    3.0387   -1.7655    0.6469 H   0  0  0  0  0  0  0  0  0  0  0  0
    4.0600    0.7503    1.2340 H   0  0  0  0  0  0  0  0  0  0  0  0
   -2.5881   -3.2645   -0.0432 H   0  0  0  0  0  0  0  0  0  0  0  0
   -1.1064   -3.6951    0.7852 H   0  0  0  0  0  0  0  0  0  0  0  0
   -2.3223   -2.8013    1.6740 H   0  0  0  0  0  0  0  0  0  0  0  0
   -1.6532    2.7344   -0.8656 H   0  0  0  0  0  0  0  0  0  0  0  0
    5.8465    0.6316    2.8428 H   0  0  0  0  0  0  0  0  0  0  0  0
    7.3434    1.4812    2.3983 H   0  0  0  0  0  0  0  0  0  0  0  0
    5.7942    2.3623    2.4042 H   0  0  0  0  0  0  0  0  0  0  0  0
   -3.9018    2.8766   -0.5611 H   0  0  0  0  0  0  0  0  0  0  0  0
   -7.2374   -0.0686    0.0650 H   0  0  0  0  0  0  0  0  0  0  0  0
  1 15  1  0  0  0  0
  2 17  2  0  0  0  0
  3 21  2  0  0  0  0
  4 25  1  0  0  0  0
  4 42  1  0  0  0  0
  5 25  2  0  0  0  0
  6 12  1  0  0  0  0
  6 13  1  0  0  0  0
  6 14  1  0  0  0  0
  7 10  1  0  0  0  0
  7 17  1  0  0  0  0
  7 33  1  0  0  0  0
  8 14  1  0  0  0  0
  8 19  2  0  0  0  0
  9 19  1  0  0  0  0
  9 24  1  0  0  0  0
  9 37  1  0  0  0  0
 10 11  1  0  0  0  0
 10 12  1  0  0  0  0
 10 26  1  0  0  0  0
 11 13  1  0  0  0  0
 11 27  1  0  0  0  0
 11 28  1  0  0  0  0
 12 29  1  0  0  0  0
 12 30  1  0  0  0  0
 13 31  1  0  0  0  0
 13 32  1  0  0  0  0
 14 15  2  0  0  0  0
 15 16  1  0  0  0  0
 16 18  2  0  0  0  0
 16 20  1  0  0  0  0
 17 22  1  0  0  0  0
 18 19  1  0  0  0  0
 18 21  1  0  0  0  0
 20 34  1  0  0  0  0
 20 35  1  0  0  0  0
 20 36  1  0  0  0  0
 21 23  1  0  0  0  0
 22 38  1  0  0  0  0
 22 39  1  0  0  0  0
 22 40  1  0  0  0  0
 23 24  2  0  0  0  0
 23 25  1  0  0  0  0
 24 41  1  0  0  0  0
M  END
> <PUBCHEM_COMPOUND_CID>
49830892

> <PUBCHEM_CONFORMER_RMSD>
0.8

> <PUBCHEM_CONFORMER_DIVERSEORDER>
1
13
10
7
2
8
16
11
18
6
14
12
17
5
4
9
3
15

> <PUBCHEM_MMFF94_PARTIAL_CHARGES>
28
1 -0.19
10 0.3
12 0.37
13 0.37
14 0.41
15 0.19
16 -0.14
17 0.57
18 0.09
19 0.41
2 -0.57
20 0.14
21 0.47
22 0.06
23 0.03
24 -0.05
25 0.71
3 -0.57
33 0.37
37 0.4
4 -0.65
41 0.15
42 0.5
5 -0.57
6 -0.84
7 -0.73
8 -0.62
9 -0.6

> <PUBCHEM_EFFECTIVE_ROTOR_COUNT>
5

> <PUBCHEM_PHARMACOPHORE_FEATURES>
12
1 2 acceptor
1 3 acceptor
1 4 acceptor
1 5 acceptor
1 6 cation
1 7 donor
1 9 donor
3 4 5 25 anion
3 8 9 19 cation
5 6 10 11 12 13 rings
6 8 14 15 16 18 19 rings
6 9 18 19 21 23 24 rings

> <PUBCHEM_HEAVY_ATOM_COUNT>
25

> <PUBCHEM_ATOM_DEF_STEREO_COUNT>
0

> <PUBCHEM_ATOM_UDEF_STEREO_COUNT>
1

> <PUBCHEM_BOND_DEF_STEREO_COUNT>
0

> <PUBCHEM_BOND_UDEF_STEREO_COUNT>
0

> <PUBCHEM_ISOTOPIC_ATOM_COUNT>
0

> <PUBCHEM_COMPONENT_COUNT>
1

> <PUBCHEM_CACTVS_TAUTO_COUNT>
44

> <PUBCHEM_CONFORMER_ID>
02F85BEC00000001

> <PUBCHEM_MMFF94_ENERGY>
79.4152

> <PUBCHEM_FEATURE_SELFOVERLAP>
60.988

> <PUBCHEM_SHAPE_FINGERPRINT>
10 15 18113904887749000448
10319926 262 18408595973373121642
10366900 7 12103847864875879494
10411042 1 17760092117814434235
10692045 39 18266164055889744770
11112241 14 16843583097964097752
12035758 1 18336275612776984649
12236239 1 18059858316634339597
12403259 415 18263081020320210108
12616971 3 16877947169573991950
12838862 33 18261944194897521133
13140716 1 18116720809799280365
13402501 40 18272365399801033176
13533116 47 18271528577163286542
13668630 136 12757150164830131384
13914758 101 15574980750874826407
14739800 52 18342163428570891664
14790565 3 18334871502110988469
15196674 1 18335428941510488591
173720 79 17676486146462971530
17980427 23 18261671601369743548
1813 80 15791728578066212078
20554085 129 18342160155584187947
21033648 29 17987784346292554080
21130935 74 18341052921885457171
21150785 3 15841547492253132717
21424621 283 18200882768776782073
21792934 111 18042400227996029193
21859007 373 17315055676476179148
22224240 67 18408888413242862185
23402539 116 18409167736077123423
23559900 14 18338811035251709534
2916195 48 18272929423042298752
335352 9 18262246520943695039
34797466 226 16917074355952947357
34934 24 18411698785642092422
350125 39 18044943372114693991
3545911 37 18411985750161578700
3680242 22 18187930530085345664
4073 2 18260837037906458242
4093350 32 17418100870948957236
4340502 62 18410011014118819342
465052 167 11458433422706276408
495365 180 17917707977444550870
5104073 3 18334582295760505371
5385378 56 18335985255644518210
5969126 39 18055909042682852479
59755656 215 18337119964661309894
86090 222 13623802771091148472
9981440 41 18260270750230815523

> <PUBCHEM_SHAPE_MULTIPOLES>
463.81
15.63
2.4
1.07
8.39
1.09
-0.34
-9.63
-4.33
-1.32
-0.43
1.75
-0.26
1.49

> <PUBCHEM_SHAPE_SELFOVERLAP>
1009.216

> <PUBCHEM_SHAPE_VOLUME>
253.1

> <PUBCHEM_COORDINATE_TYPE>
2
5
10

$$$$
