24858859
  -OEChem-10052115183D

 34 36  0     0  0  0  0  0  0999 V2000
   -5.1751    2.6625    0.0002 F   0  0  0  0  0  0  0  0  0  0  0  0
   -3.3401    3.0672    1.0832 F   0  0  0  0  0  0  0  0  0  0  0  0
   -3.3336    3.0451   -1.0912 F   0  0  0  0  0  0  0  0  0  0  0  0
    2.3757   -1.8735   -0.0011 O   0  0  0  0  0  0  0  0  0  0  0  0
    0.5303   -0.4316   -0.0003 N   0  0  0  0  0  0  0  0  0  0  0  0
   -2.6573   -3.1381    0.0008 N   0  0  0  0  0  0  0  0  0  0  0  0
    2.6614    0.4477   -0.0011 N   0  0  0  0  0  0  0  0  0  0  0  0
    4.8463   -0.5150   -0.0005 N   0  0  0  0  0  0  0  0  0  0  0  0
    5.9350    2.0698    0.0013 N   0  0  0  0  0  0  0  0  0  0  0  0
   -1.8827   -0.8563    0.0007 C   0  0  0  0  0  0  0  0  0  0  0  0
   -2.9158   -1.8168    0.0011 C   0  0  0  0  0  0  0  0  0  0  0  0
   -0.5576   -1.3125    0.0000 C   0  0  0  0  0  0  0  0  0  0  0  0
   -2.1888    0.5152    0.0009 C   0  0  0  0  0  0  0  0  0  0  0  0
   -3.5139    0.9411    0.0014 C   0  0  0  0  0  0  0  0  0  0  0  0
   -4.2319   -1.3629    0.0016 C   0  0  0  0  0  0  0  0  0  0  0  0
   -4.5365    0.0006    0.0018 C   0  0  0  0  0  0  0  0  0  0  0  0
   -0.2882   -2.6735   -0.0002 C   0  0  0  0  0  0  0  0  0  0  0  0
   -3.8351    2.3969    0.0005 C   0  0  0  0  0  0  0  0  0  0  0  0
   -1.3648   -3.5371    0.0003 C   0  0  0  0  0  0  0  0  0  0  0  0
    1.9100   -0.7384   -0.0009 C   0  0  0  0  0  0  0  0  0  0  0  0
    4.0695    0.5865   -0.0016 C   0  0  0  0  0  0  0  0  0  0  0  0
    4.6043    1.8560   -0.0006 C   0  0  0  0  0  0  0  0  0  0  0  0
    6.1770   -0.3013    0.0013 C   0  0  0  0  0  0  0  0  0  0  0  0
    6.7118    0.9682    0.0024 C   0  0  0  0  0  0  0  0  0  0  0  0
   -1.4237    1.2852    0.0004 H   0  0  0  0  0  0  0  0  0  0  0  0
   -5.0510   -2.0797    0.0018 H   0  0  0  0  0  0  0  0  0  0  0  0
   -5.5796    0.3045    0.0020 H   0  0  0  0  0  0  0  0  0  0  0  0
    0.6839   -3.1372   -0.0007 H   0  0  0  0  0  0  0  0  0  0  0  0
    0.3244    0.5601   -0.0001 H   0  0  0  0  0  0  0  0  0  0  0  0
   -1.2171   -4.6122    0.0002 H   0  0  0  0  0  0  0  0  0  0  0  0
    2.1377    1.3193   -0.0010 H   0  0  0  0  0  0  0  0  0  0  0  0
    3.9912    2.7500   -0.0008 H   0  0  0  0  0  0  0  0  0  0  0  0
    6.8017   -1.1859    0.0021 H   0  0  0  0  0  0  0  0  0  0  0  0
    7.7812    1.1390    0.0040 H   0  0  0  0  0  0  0  0  0  0  0  0
  1 18  1  0  0  0  0
  2 18  1  0  0  0  0
  3 18  1  0  0  0  0
  4 20  2  0  0  0  0
  5 12  1  0  0  0  0
  5 20  1  0  0  0  0
  5 29  1  0  0  0  0
  6 11  2  0  0  0  0
  6 19  1  0  0  0  0
  7 20  1  0  0  0  0
  7 21  1  0  0  0  0
  7 31  1  0  0  0  0
  8 21  2  0  0  0  0
  8 23  1  0  0  0  0
  9 22  2  0  0  0  0
  9 24  1  0  0  0  0
 10 11  1  0  0  0  0
 10 12  2  0  0  0  0
 10 13  1  0  0  0  0
 11 15  1  0  0  0  0
 12 17  1  0  0  0  0
 13 14  2  0  0  0  0
 13 25  1  0  0  0  0
 14 16  1  0  0  0  0
 14 18  1  0  0  0  0
 15 16  2  0  0  0  0
 15 26  1  0  0  0  0
 16 27  1  0  0  0  0
 17 19  2  0  0  0  0
 17 28  1  0  0  0  0
 19 30  1  0  0  0  0
 21 22  1  0  0  0  0
 22 32  1  0  0  0  0
 23 24  2  0  0  0  0
 23 33  1  0  0  0  0
 24 34  1  0  0  0  0
M  END
> <PUBCHEM_COMPOUND_CID>
24858859

> <PUBCHEM_CONFORMER_RMSD>
0.8

> <PUBCHEM_CONFORMER_DIVERSEORDER>
1
11
20
8
7
6
3
16
19
2
12
15
5
10
14
13
9
18
4
17

> <PUBCHEM_MMFF94_PARTIAL_CHARGES>
33
1 -0.34
11 0.31
12 0.12
13 -0.15
14 -0.14
15 -0.15
16 -0.15
17 -0.15
18 1.16
19 0.16
2 -0.34
20 0.69
21 0.43
22 0.16
23 0.16
24 0.16
25 0.15
26 0.15
27 0.15
28 0.15
29 0.37
3 -0.34
30 0.15
31 0.37
32 0.15
33 0.15
34 0.15
4 -0.57
5 -0.55
6 -0.62
7 -0.55
8 -0.62
9 -0.62

> <PUBCHEM_EFFECTIVE_ROTOR_COUNT>
5

> <PUBCHEM_PHARMACOPHORE_FEATURES>
8
1 4 acceptor
1 5 donor
1 6 acceptor
1 7 donor
1 9 acceptor
6 10 11 13 14 15 16 rings
6 6 10 11 12 17 19 rings
6 8 9 21 22 23 24 rings

> <PUBCHEM_HEAVY_ATOM_COUNT>
24

> <PUBCHEM_ATOM_DEF_STEREO_COUNT>
0

> <PUBCHEM_ATOM_UDEF_STEREO_COUNT>
0

> <PUBCHEM_BOND_DEF_STEREO_COUNT>
0

> <PUBCHEM_BOND_UDEF_STEREO_COUNT>
0

> <PUBCHEM_ISOTOPIC_ATOM_COUNT>
0

> <PUBCHEM_COMPONENT_COUNT>
1

> <PUBCHEM_CACTVS_TAUTO_COUNT>
11

> <PUBCHEM_CONFORMER_ID>
017B50EB00000001

> <PUBCHEM_MMFF94_ENERGY>
71.0437

> <PUBCHEM_FEATURE_SELFOVERLAP>
40.678

> <PUBCHEM_SHAPE_FINGERPRINT>
100830 39 18410011044516432384
10411042 1 17834114526388688039
10595046 47 18263643034529851534
10670039 82 18410285930432633680
11135609 187 18264759971125544437
12107183 9 18191296079955582986
12390115 104 18342471304716864353
12788726 201 18263070184303033803
13073987 5 18335135440978777186
14251757 5 18341613749918994512
14251764 75 18126575509582333505
14347329 18 18341044147208853472
14508225 48 17767390650366672151
14598715 104 17844514699896830552
14739800 52 18267283487390755800
14790565 3 18266743471897906624
15042514 8 18192436496646527547
15183329 4 18410573990279939810
17844677 252 18337961211494594036
20645477 56 18413111679542679811
21033648 29 18272077327669900216
21065198 57 18339360881238551270
21236236 1 18411698798621679965
21279426 13 18270687463763527942
21315763 129 18340205301862991134
21315764 268 18339919432892617684
21756936 100 18342449352970313542
23559900 14 18199746011339892210
245318 6 16521606635645499180
283562 15 18410572895237898403
350125 39 18411702110468752657
4073 2 18042126621916350546
4214541 1 18338516447586550918
441001 317 18411418436036035714
445580 37 18337684113263865636
5104073 3 18187086104939124682
5283173 99 18413108385856359584
531348 171 18131632287906629766
5969126 39 18127685136090076719
6299153 45 18263076627090879818
6327066 14 18262794056766003501
636775 72 18268988873171384904
6700243 42 17480341123468801366
7808743 9 18410007745295285923
9981440 41 18334863805355741899

> <PUBCHEM_SHAPE_MULTIPOLES>
441.31
14.6
3.81
0.65
23.55
0.28
0
9.07
0.01
-5.28
0
-0.23
0.2
0

> <PUBCHEM_SHAPE_SELFOVERLAP>
972.425

> <PUBCHEM_SHAPE_VOLUME>
236.5

> <PUBCHEM_COORDINATE_TYPE>
2
5
10

$$$$
