49830811
  -OEChem-10052120443D

 27 30  0     0  0  0  0  0  0999 V2000
    3.3428   -1.3181   -1.1150 O   0  0  0  0  0  0  0  0  0  0  0  0
    4.4730    0.1189    0.4552 O   0  0  0  0  0  0  0  0  0  0  0  0
   -3.9248   -1.3237    0.2279 N   0  0  0  0  0  0  0  0  0  0  0  0
   -1.5264    1.8407   -0.5195 N   0  0  0  0  0  0  0  0  0  0  0  0
   -3.8036    0.9808   -0.4714 N   0  0  0  0  0  0  0  0  0  0  0  0
    0.4083    0.5411    0.0661 C   0  0  0  0  0  0  0  0  0  0  0  0
   -1.0243    0.6542   -0.1054 C   0  0  0  0  0  0  0  0  0  0  0  0
   -1.8905   -0.4103    0.1403 C   0  0  0  0  0  0  0  0  0  0  0  0
    2.4874   -0.4691   -0.4828 C   0  0  0  0  0  0  0  0  0  0  0  0
    1.1236   -0.3986   -0.6803 C   0  0  0  0  0  0  0  0  0  0  0  0
    3.1328    0.3514    0.4138 C   0  0  0  0  0  0  0  0  0  0  0  0
   -3.2442   -0.1713   -0.0626 C   0  0  0  0  0  0  0  0  0  0  0  0
    1.0678    1.3794    0.9822 C   0  0  0  0  0  0  0  0  0  0  0  0
    2.4500    1.2876    1.1627 C   0  0  0  0  0  0  0  0  0  0  0  0
   -1.7678   -1.7573    0.5671 C   0  0  0  0  0  0  0  0  0  0  0  0
    4.5990   -0.9397   -0.5160 C   0  0  0  0  0  0  0  0  0  0  0  0
   -3.0365   -2.2952    0.6124 C   0  0  0  0  0  0  0  0  0  0  0  0
   -2.8666    1.9292   -0.6746 C   0  0  0  0  0  0  0  0  0  0  0  0
    0.6397   -1.0515   -1.3997 H   0  0  0  0  0  0  0  0  0  0  0  0
    0.5108    2.1095    1.5657 H   0  0  0  0  0  0  0  0  0  0  0  0
    2.9621    1.9315    1.8686 H   0  0  0  0  0  0  0  0  0  0  0  0
   -0.8595   -2.2870    0.8197 H   0  0  0  0  0  0  0  0  0  0  0  0
   -4.9269   -1.4396    0.1682 H   0  0  0  0  0  0  0  0  0  0  0  0
    5.2803   -0.6096   -1.3086 H   0  0  0  0  0  0  0  0  0  0  0  0
    5.0316   -1.8182   -0.0235 H   0  0  0  0  0  0  0  0  0  0  0  0
   -3.3854   -3.2814    0.8842 H   0  0  0  0  0  0  0  0  0  0  0  0
   -3.2369    2.8929   -1.0072 H   0  0  0  0  0  0  0  0  0  0  0  0
  1  9  1  0  0  0  0
  1 16  1  0  0  0  0
  2 11  1  0  0  0  0
  2 16  1  0  0  0  0
  3 12  1  0  0  0  0
  3 17  1  0  0  0  0
  3 23  1  0  0  0  0
  4  7  1  0  0  0  0
  4 18  2  0  0  0  0
  5 12  2  0  0  0  0
  5 18  1  0  0  0  0
  6  7  1  0  0  0  0
  6 10  2  0  0  0  0
  6 13  1  0  0  0  0
  7  8  2  0  0  0  0
  8 12  1  0  0  0  0
  8 15  1  0  0  0  0
  9 10  1  0  0  0  0
  9 11  2  0  0  0  0
 10 19  1  0  0  0  0
 11 14  1  0  0  0  0
 13 14  2  0  0  0  0
 13 20  1  0  0  0  0
 14 21  1  0  0  0  0
 15 17  2  0  0  0  0
 15 22  1  0  0  0  0
 16 24  1  0  0  0  0
 16 25  1  0  0  0  0
 17 26  1  0  0  0  0
 18 27  1  0  0  0  0
M  END
> <PUBCHEM_COMPOUND_CID>
49830811

> <PUBCHEM_CONFORMER_RMSD>
0.6

> <PUBCHEM_CONFORMER_DIVERSEORDER>
2
1
3
4

> <PUBCHEM_MMFF94_PARTIAL_CHARGES>
23
1 -0.36
10 -0.15
11 0.08
12 0.11
13 -0.15
14 -0.15
15 -0.15
16 0.56
17 -0.3
18 0.47
19 0.15
2 -0.36
20 0.15
21 0.15
22 0.15
23 0.27
26 0.15
27 0.15
3 0.03
4 -0.62
5 -0.57
7 0.31
9 0.08

> <PUBCHEM_EFFECTIVE_ROTOR_COUNT>
1.6

> <PUBCHEM_PHARMACOPHORE_FEATURES>
9
1 1 acceptor
1 2 acceptor
1 3 donor
3 3 5 12 cation
3 4 5 18 cation
5 1 2 9 11 16 rings
5 3 8 12 15 17 rings
6 4 5 7 8 12 18 rings
6 6 9 10 11 13 14 rings

> <PUBCHEM_HEAVY_ATOM_COUNT>
18

> <PUBCHEM_ATOM_DEF_STEREO_COUNT>
0

> <PUBCHEM_ATOM_UDEF_STEREO_COUNT>
0

> <PUBCHEM_BOND_DEF_STEREO_COUNT>
0

> <PUBCHEM_BOND_UDEF_STEREO_COUNT>
0

> <PUBCHEM_ISOTOPIC_ATOM_COUNT>
0

> <PUBCHEM_COMPONENT_COUNT>
1

> <PUBCHEM_CACTVS_TAUTO_COUNT>
3

> <PUBCHEM_CONFORMER_ID>
02F85B9B00000002

> <PUBCHEM_MMFF94_ENERGY>
43.9239

> <PUBCHEM_FEATURE_SELFOVERLAP>
46.104

> <PUBCHEM_SHAPE_FINGERPRINT>
10608611 8 18341043094609692344
10616163 171 18334296465550072178
11543360 7 17968672583206212812
11578080 2 14619361045547019075
11615757 297 16702019807266110872
11796584 16 18189332373594808226
12236239 1 16587740919419038925
12500047 106 18262230019678947117
13134695 92 17203601571793355104
13296908 3 18342458161837298650
13544592 145 18340489941550123589
13760787 19 18041279872881059050
14115302 16 18334585607043075132
14386348 63 18272371966562889574
15219456 202 18272083933028790688
15309172 13 17131835382210963046
15375358 24 18272365352381754102
15653759 3 18411136948063679416
16752209 62 17895180126467741147
16945 1 18187639202759580193
17804303 29 18410014346886898865
17834074 16 18412262839491428622
17870717 6 18338812112713377374
19049666 15 18270680861623099779
19141452 34 18200599223963645607
19862831 5 16298384686257338522
200 152 17131825465516526693
20279233 1 18343019986551493006
20645477 70 17560516210175251990
20871999 31 18259991469818284068
21065201 7 18260823783135735746
22094290 60 18259706700496162108
221490 88 18340491157500621864
22943178 12 18341886420165158264
23175994 123 17775570822954411328
23402539 116 18187356627759376780
23557571 272 18335135431766545072
23559900 14 18339078182175036366
26918003 58 18272647914233052130
2748010 2 18341886432997280021
4214541 1 18408041788651203588
474 4 14978519985257710002
4921388 177 17241058668333342411
5104073 3 18413106165089288336
573450 72 17895463752943369114
6049 1 18341611550721704248
7364860 26 18121222240463502308
77492 1 16515680035314894969
81228 2 18260548965680373009
8809292 202 18411139121290705499
9709674 26 18412542145362052751

> <PUBCHEM_SHAPE_MULTIPOLES>
343.75
8.26
2.02
0.96
3.63
0.17
-0.06
2.13
0.53
-1.7
-0.11
0.41
-0.07
1.54

> <PUBCHEM_SHAPE_SELFOVERLAP>
790.405

> <PUBCHEM_SHAPE_VOLUME>
175.7

> <PUBCHEM_COORDINATE_TYPE>
2
5
10

$$$$
