44138048
  -OEChem-10052115143D

 33 35  0     0  0  0  0  0  0999 V2000
    2.3121    2.9283    1.3333 Cl  0  0  0  0  0  0  0  0  0  0  0  0
   -3.5287    2.0768   -2.0824 Cl  0  0  0  0  0  0  0  0  0  0  0  0
   -5.6446    1.4785    0.2912 Cl  0  0  0  0  0  0  0  0  0  0  0  0
    4.5676    1.3298    0.1608 O   0  0  0  0  0  0  0  0  0  0  0  0
   -0.4150   -2.6749   -0.0066 N   0  0  0  0  0  0  0  0  0  0  0  0
    2.0478   -1.2715   -0.3143 C   0  0  0  0  0  0  0  0  0  0  0  0
    1.9153   -2.6694   -0.8411 C   0  0  0  0  0  0  0  0  0  0  0  0
    0.9017   -0.6219    0.1634 C   0  0  0  0  0  0  0  0  0  0  0  0
    0.8575   -3.4028   -0.0268 C   0  0  0  0  0  0  0  0  0  0  0  0
   -0.3760   -1.3860    0.1012 C   0  0  0  0  0  0  0  0  0  0  0  0
    3.2733   -0.5994   -0.3204 C   0  0  0  0  0  0  0  0  0  0  0  0
    0.9916    0.6729    0.6819 C   0  0  0  0  0  0  0  0  0  0  0  0
   -1.6731   -0.6698    0.1344 C   0  0  0  0  0  0  0  0  0  0  0  0
    3.3590    0.6991    0.1814 C   0  0  0  0  0  0  0  0  0  0  0  0
    2.2226    1.3301    0.6873 C   0  0  0  0  0  0  0  0  0  0  0  0
   -1.9817    0.2618   -0.8568 C   0  0  0  0  0  0  0  0  0  0  0  0
   -2.5857   -0.9280    1.1572 C   0  0  0  0  0  0  0  0  0  0  0  0
   -3.2029    0.9352   -0.8253 C   0  0  0  0  0  0  0  0  0  0  0  0
   -3.8067   -0.2545    1.1890 C   0  0  0  0  0  0  0  0  0  0  0  0
   -4.1154    0.6770    0.1976 C   0  0  0  0  0  0  0  0  0  0  0  0
    4.8812    2.0886   -1.0049 C   0  0  0  0  0  0  0  0  0  0  0  0
    1.6277   -2.6247   -1.8983 H   0  0  0  0  0  0  0  0  0  0  0  0
    2.8672   -3.2072   -0.7689 H   0  0  0  0  0  0  0  0  0  0  0  0
    0.6873   -4.3912   -0.4675 H   0  0  0  0  0  0  0  0  0  0  0  0
    1.1946   -3.5657    1.0046 H   0  0  0  0  0  0  0  0  0  0  0  0
    4.1621   -1.0899   -0.7097 H   0  0  0  0  0  0  0  0  0  0  0  0
    0.1149    1.1726    1.0852 H   0  0  0  0  0  0  0  0  0  0  0  0
   -1.2715    0.4563   -1.6578 H   0  0  0  0  0  0  0  0  0  0  0  0
   -2.3561   -1.6491    1.9375 H   0  0  0  0  0  0  0  0  0  0  0  0
   -4.5057   -0.4674    1.9940 H   0  0  0  0  0  0  0  0  0  0  0  0
    5.8399    2.5882   -0.8404 H   0  0  0  0  0  0  0  0  0  0  0  0
    4.1191    2.8502   -1.1969 H   0  0  0  0  0  0  0  0  0  0  0  0
    4.9761    1.4286   -1.8730 H   0  0  0  0  0  0  0  0  0  0  0  0
  1 15  1  0  0  0  0
  2 18  1  0  0  0  0
  3 20  1  0  0  0  0
  4 14  1  0  0  0  0
  4 21  1  0  0  0  0
  5  9  1  0  0  0  0
  5 10  2  0  0  0  0
  6  7  1  0  0  0  0
  6  8  1  0  0  0  0
  6 11  2  0  0  0  0
  7  9  1  0  0  0  0
  7 22  1  0  0  0  0
  7 23  1  0  0  0  0
  8 10  1  0  0  0  0
  8 12  2  0  0  0  0
  9 24  1  0  0  0  0
  9 25  1  0  0  0  0
 10 13  1  0  0  0  0
 11 14  1  0  0  0  0
 11 26  1  0  0  0  0
 12 15  1  0  0  0  0
 12 27  1  0  0  0  0
 13 16  2  0  0  0  0
 13 17  1  0  0  0  0
 14 15  2  0  0  0  0
 16 18  1  0  0  0  0
 16 28  1  0  0  0  0
 17 19  2  0  0  0  0
 17 29  1  0  0  0  0
 18 20  2  0  0  0  0
 19 20  1  0  0  0  0
 19 30  1  0  0  0  0
 21 31  1  0  0  0  0
 21 32  1  0  0  0  0
 21 33  1  0  0  0  0
M  END
> <PUBCHEM_COMPOUND_CID>
44138048

> <PUBCHEM_CONFORMER_RMSD>
0.6

> <PUBCHEM_CONFORMER_DIVERSEORDER>
3
2
4
1
5
7
6
8

> <PUBCHEM_MMFF94_PARTIAL_CHARGES>
26
1 -0.18
10 0.28
11 -0.15
12 -0.15
13 0.09
14 0.08
15 0.18
16 -0.15
17 -0.15
18 0.18
19 -0.15
2 -0.18
20 0.18
21 0.28
26 0.15
27 0.15
28 0.15
29 0.15
3 -0.18
30 0.15
4 -0.36
5 -0.7
6 -0.14
7 0.14
8 0.09
9 0.25

> <PUBCHEM_EFFECTIVE_ROTOR_COUNT>
2.4

> <PUBCHEM_PHARMACOPHORE_FEATURES>
5
1 4 acceptor
1 5 acceptor
6 13 16 17 18 19 20 rings
6 5 6 7 8 9 10 rings
6 6 8 11 12 14 15 rings

> <PUBCHEM_HEAVY_ATOM_COUNT>
21

> <PUBCHEM_ATOM_DEF_STEREO_COUNT>
0

> <PUBCHEM_ATOM_UDEF_STEREO_COUNT>
0

> <PUBCHEM_BOND_DEF_STEREO_COUNT>
0

> <PUBCHEM_BOND_UDEF_STEREO_COUNT>
0

> <PUBCHEM_ISOTOPIC_ATOM_COUNT>
0

> <PUBCHEM_COMPONENT_COUNT>
1

> <PUBCHEM_CACTVS_TAUTO_COUNT>
1

> <PUBCHEM_CONFORMER_ID>
02A17E4000000003

> <PUBCHEM_MMFF94_ENERGY>
74.2627

> <PUBCHEM_FEATURE_SELFOVERLAP>
25.397

> <PUBCHEM_SHAPE_FINGERPRINT>
10165383 225 18338527429290581529
10411042 1 17620198632965406910
10608611 8 18189334576643459935
11471102 20 18271528615211070922
11595378 159 16153703181369710805
12236239 1 16988556845628185067
12403259 415 18042126458290575925
12654215 9 18338511933359709966
12730499 353 18411144615076389483
12769317 202 18340759364811977049
12895836 83 18045240468552339396
13134695 92 18055626222821578598
13140716 1 18341323500371453858
13402501 40 18334294245320849533
13583140 156 16588844876459214276
14508225 48 17621887483474212574
14790565 3 18340219569307505608
14866123 147 10340120700610279354
15342168 16 18410579487405581653
17980427 23 17458631176458058255
1813 80 16984354395901520846
18186145 218 17988081218041231368
18219364 16 18340777034402118947
19049666 15 18044937866304022543
19784866 34 18343863337982387650
20600515 1 15874177397777353066
20645477 70 18129661881322598167
21033648 29 18339637957588950816
21524375 3 18339640165196768322
21639500 275 18271797987191578311
22122407 14 17843421600496900721
221357 26 18197777696426675981
22907989 373 17689990558939769654
23536364 44 17838071312158628430
23557571 272 17313958389926149239
23558518 356 17905036307396838802
23559900 14 17460048288027663743
238 59 18125691592115944413
25 1 18343582953880059690
335352 9 18413392030081802558
350125 39 18124884717816134970
3524813 1 18262234417704398325
474 4 18272931630808177617
495365 180 18268414772775188627
5104073 3 18188218589806051899
633830 44 18059305261689547199
7808743 9 18117002298067360924
81228 2 17402036194382056594
8272917 22 18200599081707082775

> <PUBCHEM_SHAPE_MULTIPOLES>
426.93
9.56
3.31
1.29
4.58
1.27
-0.28
-7.47
-0.8
-2.59
-0.21
0.79
-0.73
1.39

> <PUBCHEM_SHAPE_SELFOVERLAP>
904.415

> <PUBCHEM_SHAPE_VOLUME>
242.5

> <PUBCHEM_COORDINATE_TYPE>
2
5
10

$$$$
