49830468
  -OEChem-10052115183D

 49 52  0     0  0  0  0  0  0999 V2000
    5.7463    0.6494    0.6016 O   0  0  0  0  0  0  0  0  0  0  0  0
   -3.4779   -0.6917   -0.9771 N   0  0  0  0  0  0  0  0  0  0  0  0
    3.6027   -3.0132    0.4933 N   0  0  0  0  0  0  0  0  0  0  0  0
    3.4255    0.4131    0.2768 N   0  0  0  0  0  0  0  0  0  0  0  0
    4.2207   -1.8206    0.5164 N   0  0  0  0  0  0  0  0  0  0  0  0
    5.5854    3.2658   -0.2539 N   0  0  0  0  0  0  0  0  0  0  0  0
   -2.8118   -2.4356    0.0919 N   0  0  0  0  0  0  0  0  0  0  0  0
   -3.8950   -1.7731   -0.2988 N   0  0  0  0  0  0  0  0  0  0  0  0
    1.9701   -1.5840    0.1755 C   0  0  0  0  0  0  0  0  0  0  0  0
    2.2506   -2.9408    0.2919 C   0  0  0  0  0  0  0  0  0  0  0  0
   -0.3539   -2.1492   -0.1316 C   0  0  0  0  0  0  0  0  0  0  0  0
    0.6447   -1.1714   -0.0405 C   0  0  0  0  0  0  0  0  0  0  0  0
    3.2243   -0.9535    0.3232 C   0  0  0  0  0  0  0  0  0  0  0  0
   -1.7162   -1.7498   -0.3539 C   0  0  0  0  0  0  0  0  0  0  0  0
    1.2703   -3.9317    0.2045 C   0  0  0  0  0  0  0  0  0  0  0  0
   -0.0442   -3.5053   -0.0110 C   0  0  0  0  0  0  0  0  0  0  0  0
   -4.4272    0.2370   -1.5354 C   0  0  0  0  0  0  0  0  0  0  0  0
   -2.1198   -0.6317   -1.0397 C   0  0  0  0  0  0  0  0  0  0  0  0
   -5.0174    1.1759   -0.5126 C   0  0  0  0  0  0  0  0  0  0  0  0
    4.4006    2.6297    0.3038 C   0  0  0  0  0  0  0  0  0  0  0  0
    4.6347    1.1330    0.4130 C   0  0  0  0  0  0  0  0  0  0  0  0
   -6.0241    0.7308    0.3440 C   0  0  0  0  0  0  0  0  0  0  0  0
   -4.5562    2.4892   -0.4238 C   0  0  0  0  0  0  0  0  0  0  0  0
    5.5986    4.6974    0.0556 C   0  0  0  0  0  0  0  0  0  0  0  0
    5.6497    3.0611   -1.7028 C   0  0  0  0  0  0  0  0  0  0  0  0
   -6.5699    1.5991    1.2896 C   0  0  0  0  0  0  0  0  0  0  0  0
   -5.1019    3.3575    0.5217 C   0  0  0  0  0  0  0  0  0  0  0  0
   -6.1088    2.9124    1.3783 C   0  0  0  0  0  0  0  0  0  0  0  0
    0.4212   -0.1117   -0.1211 H   0  0  0  0  0  0  0  0  0  0  0  0
    1.5131   -4.9843    0.2977 H   0  0  0  0  0  0  0  0  0  0  0  0
   -0.8220   -4.2631   -0.0863 H   0  0  0  0  0  0  0  0  0  0  0  0
   -5.2212   -0.3444   -2.0203 H   0  0  0  0  0  0  0  0  0  0  0  0
   -3.9240    0.7967   -2.3331 H   0  0  0  0  0  0  0  0  0  0  0  0
    4.1649   -3.8452    0.6218 H   0  0  0  0  0  0  0  0  0  0  0  0
   -1.5941    0.1647   -1.5487 H   0  0  0  0  0  0  0  0  0  0  0  0
    2.5781    0.9561    0.1292 H   0  0  0  0  0  0  0  0  0  0  0  0
    4.2220    2.9691    1.3325 H   0  0  0  0  0  0  0  0  0  0  0  0
    3.4996    2.8584   -0.2779 H   0  0  0  0  0  0  0  0  0  0  0  0
   -6.3971   -0.2880    0.2826 H   0  0  0  0  0  0  0  0  0  0  0  0
   -3.7709    2.8482   -1.0837 H   0  0  0  0  0  0  0  0  0  0  0  0
    6.5043    5.1690   -0.3420 H   0  0  0  0  0  0  0  0  0  0  0  0
    4.7272    5.2172   -0.3591 H   0  0  0  0  0  0  0  0  0  0  0  0
    5.6137    4.8573    1.1395 H   0  0  0  0  0  0  0  0  0  0  0  0
    6.5633    3.5088   -2.1103 H   0  0  0  0  0  0  0  0  0  0  0  0
    5.6911    1.9956   -1.9534 H   0  0  0  0  0  0  0  0  0  0  0  0
    4.7917    3.5036   -2.2224 H   0  0  0  0  0  0  0  0  0  0  0  0
   -7.3547    1.2529    1.9559 H   0  0  0  0  0  0  0  0  0  0  0  0
   -4.7426    4.3801    0.5912 H   0  0  0  0  0  0  0  0  0  0  0  0
   -6.5337    3.5886    2.1143 H   0  0  0  0  0  0  0  0  0  0  0  0
  1 21  2  0  0  0  0
  2  8  1  0  0  0  0
  2 17  1  0  0  0  0
  2 18  1  0  0  0  0
  3  5  1  0  0  0  0
  3 10  1  0  0  0  0
  3 34  1  0  0  0  0
  4 13  1  0  0  0  0
  4 21  1  0  0  0  0
  4 36  1  0  0  0  0
  5 13  2  0  0  0  0
  6 20  1  0  0  0  0
  6 24  1  0  0  0  0
  6 25  1  0  0  0  0
  7  8  2  0  0  0  0
  7 14  1  0  0  0  0
  9 10  2  0  0  0  0
  9 12  1  0  0  0  0
  9 13  1  0  0  0  0
 10 15  1  0  0  0  0
 11 12  2  0  0  0  0
 11 14  1  0  0  0  0
 11 16  1  0  0  0  0
 12 29  1  0  0  0  0
 14 18  2  0  0  0  0
 15 16  2  0  0  0  0
 15 30  1  0  0  0  0
 16 31  1  0  0  0  0
 17 19  1  0  0  0  0
 17 32  1  0  0  0  0
 17 33  1  0  0  0  0
 18 35  1  0  0  0  0
 19 22  2  0  0  0  0
 19 23  1  0  0  0  0
 20 21  1  0  0  0  0
 20 37  1  0  0  0  0
 20 38  1  0  0  0  0
 22 26  1  0  0  0  0
 22 39  1  0  0  0  0
 23 27  2  0  0  0  0
 23 40  1  0  0  0  0
 24 41  1  0  0  0  0
 24 42  1  0  0  0  0
 24 43  1  0  0  0  0
 25 44  1  0  0  0  0
 25 45  1  0  0  0  0
 25 46  1  0  0  0  0
 26 28  2  0  0  0  0
 26 47  1  0  0  0  0
 27 28  1  0  0  0  0
 27 48  1  0  0  0  0
 28 49  1  0  0  0  0
M  END
> <PUBCHEM_COMPOUND_CID>
49830468

> <PUBCHEM_CONFORMER_RMSD>
1

> <PUBCHEM_CONFORMER_DIVERSEORDER>
1
102
87
70
88
79
67
34
93
51
84
20
29
16
42
107
119
95
10
73
52
57
68
108
105
111
80
71
40
94
74
49
85
114
96
37
55
23
81
45
50
35
48
62
15
92
33
75
98
86
77
61
5
110
65
76
113
118
115
38
104
109
63
106
17
26
78
58
21
90
69
103
47
100
22
2
116
53
117
18
36
44
83
4
54
41
9
60
27
99
31
28
24
64
82
19
91
101
66
14
56
72
3
39
30
89
46
12
6
25
97
32
59
112
13
11
43
7
8

> <PUBCHEM_MMFF94_PARTIAL_CHARGES>
38
1 -0.57
10 -0.15
11 0.05
12 -0.15
13 0.35
14 0.17
15 -0.15
16 -0.15
17 0.4
18 -0.3
19 -0.14
2 0.31
20 0.33
21 0.57
22 -0.15
23 -0.15
24 0.27
25 0.27
26 -0.15
27 -0.15
28 -0.15
29 0.15
3 0.3
30 0.15
31 0.15
34 0.27
35 0.15
36 0.37
39 0.15
4 -0.49
40 0.15
47 0.15
48 0.15
49 0.15
5 -0.71
6 -0.81
7 -0.23
8 -0.42

> <PUBCHEM_EFFECTIVE_ROTOR_COUNT>
7

> <PUBCHEM_PHARMACOPHORE_FEATURES>
8
1 1 acceptor
1 3 donor
1 4 donor
1 6 cation
5 2 7 8 14 18 rings
5 3 5 9 10 13 rings
6 19 22 23 26 27 28 rings
6 9 10 11 12 15 16 rings

> <PUBCHEM_HEAVY_ATOM_COUNT>
28

> <PUBCHEM_ATOM_DEF_STEREO_COUNT>
0

> <PUBCHEM_ATOM_UDEF_STEREO_COUNT>
0

> <PUBCHEM_BOND_DEF_STEREO_COUNT>
0

> <PUBCHEM_BOND_UDEF_STEREO_COUNT>
0

> <PUBCHEM_ISOTOPIC_ATOM_COUNT>
0

> <PUBCHEM_COMPONENT_COUNT>
1

> <PUBCHEM_CACTVS_TAUTO_COUNT>
24

> <PUBCHEM_CONFORMER_ID>
02F85A4400000001

> <PUBCHEM_MMFF94_ENERGY>
61.7992

> <PUBCHEM_FEATURE_SELFOVERLAP>
40.688

> <PUBCHEM_SHAPE_FINGERPRINT>
100830 2 18409737291189878340
10429389 16 11815614130529455187
11070050 100 17022902294297191930
11135609 201 18339927129494669827
11408170 253 17470179514700207564
11479125 193 18410860966567016817
1200032 147 18187088382110489784
12107183 9 18116972538834825906
12390115 104 18337677532550918326
12422481 6 17240470421323085556
12788726 201 17202766978022388585
13398642 44 18187659023733419789
13885169 86 18411703166851476217
13944108 23 18267591217471112076
14026016 13 18342465871868845177
14251764 75 18411703200815536641
14347329 18 18340197600485840384
14429114 114 18340198695444349209
14664723 55 18043538420284241124
14790565 3 18410854403867212188
14849402 71 18264489486262982986
15081414 286 18051688837265135447
15142526 21 18261110742944569387
16728433 281 17974018542334067108
16760501 71 18410294666886678617
16993089 31 12895064181247052269
1768 23 17559971922203184105
18393751 57 18261117344915574747
19302320 297 18124036719932175041
19438510 23 18187643665193756240
20058555 10 18409727374590010909
20691028 202 18271240505201439425
21307412 95 9582148711143114586
23569914 152 17772498741319174092
245318 6 18187939399135062820
2748736 6 18339630235248126312
437795 171 18262227833541808661
437795 96 17753603547590725277
5047190 36 17823426070269331628
5104073 3 18186796959446683595
5223283 242 17699312983214611742
5364581 5 18335990792463855529
53794403 172 18339647745934858446
550186 72 18050001400786611423
57724786 102 18340202999075062631
5951187 136 18200605713342115454
6034566 193 18337400447067733321
6058803 2 18269533019135758503
636775 72 17836641195698705168
7970288 3 7890730950479277028

> <PUBCHEM_SHAPE_MULTIPOLES>
535.49
17.78
6.14
1.09
6.2
2.29
0.22
23.92
-2.15
-7.08
-0.42
0.74
0.6
-2.9

> <PUBCHEM_SHAPE_SELFOVERLAP>
1167.078

> <PUBCHEM_SHAPE_VOLUME>
294.6

> <PUBCHEM_COORDINATE_TYPE>
2
5
10

$$$$
