49830869
  -OEChem-10052120443D

 34 36  0     0  0  0  0  0  0999 V2000
   -4.6976   -3.1164    1.6617 Br  0  0  0  0  0  0  0  0  0  0  0  0
    3.1589   -1.5022    0.9364 S   0  0  0  0  0  0  0  0  0  0  0  0
   -3.0566    1.6066   -1.7323 O   0  0  0  0  0  0  0  0  0  0  0  0
    0.3883    3.5939    0.9365 O   0  0  0  0  0  0  0  0  0  0  0  0
   -0.9622    1.8040    0.4446 N   0  0  0  0  0  0  0  0  0  0  0  0
    3.8112    2.6434    0.5785 N   0  0  0  0  0  0  0  0  0  0  0  0
    1.2980    0.2755   -0.0561 C   0  0  0  0  0  0  0  0  0  0  0  0
   -1.1279    0.4913    0.0656 C   0  0  0  0  0  0  0  0  0  0  0  0
   -0.0486   -0.2662   -0.1850 C   0  0  0  0  0  0  0  0  0  0  0  0
   -2.4987   -0.0352   -0.0681 C   0  0  0  0  0  0  0  0  0  0  0  0
    2.4668   -0.5886   -0.3358 C   0  0  0  0  0  0  0  0  0  0  0  0
    1.4742    1.5639    0.3167 C   0  0  0  0  0  0  0  0  0  0  0  0
    0.2673    2.4184    0.5950 C   0  0  0  0  0  0  0  0  0  0  0  0
    3.1224   -0.7872   -1.5309 C   0  0  0  0  0  0  0  0  0  0  0  0
   -3.4054    0.5388   -0.9593 C   0  0  0  0  0  0  0  0  0  0  0  0
   -2.8833   -1.1251    0.7128 C   0  0  0  0  0  0  0  0  0  0  0  0
    4.3397   -2.1668   -0.1108 C   0  0  0  0  0  0  0  0  0  0  0  0
    4.2074   -1.7015   -1.4007 C   0  0  0  0  0  0  0  0  0  0  0  0
   -4.6967    0.0229   -1.0696 C   0  0  0  0  0  0  0  0  0  0  0  0
   -4.1745   -1.6413    0.6024 C   0  0  0  0  0  0  0  0  0  0  0  0
   -5.0811   -1.0673   -0.2889 C   0  0  0  0  0  0  0  0  0  0  0  0
    5.3347   -3.1202    0.4262 C   0  0  0  0  0  0  0  0  0  0  0  0
    2.7635    2.1593    0.4612 C   0  0  0  0  0  0  0  0  0  0  0  0
   -0.1459   -1.3024   -0.4979 H   0  0  0  0  0  0  0  0  0  0  0  0
   -1.7969    2.3545    0.6266 H   0  0  0  0  0  0  0  0  0  0  0  0
    2.8422   -0.3034   -2.4583 H   0  0  0  0  0  0  0  0  0  0  0  0
   -2.1814   -1.5728    1.4139 H   0  0  0  0  0  0  0  0  0  0  0  0
    4.8550   -1.9993   -2.2155 H   0  0  0  0  0  0  0  0  0  0  0  0
   -5.4140    0.4600   -1.7591 H   0  0  0  0  0  0  0  0  0  0  0  0
   -6.0911   -1.4571   -0.3867 H   0  0  0  0  0  0  0  0  0  0  0  0
    5.9369   -2.6559    1.2144 H   0  0  0  0  0  0  0  0  0  0  0  0
    4.8440   -4.0070    0.8410 H   0  0  0  0  0  0  0  0  0  0  0  0
    6.0203   -3.4581   -0.3583 H   0  0  0  0  0  0  0  0  0  0  0  0
   -3.8160    1.8632   -2.2830 H   0  0  0  0  0  0  0  0  0  0  0  0
  1 20  1  0  0  0  0
  2 11  1  0  0  0  0
  2 17  1  0  0  0  0
  3 15  1  0  0  0  0
  3 34  1  0  0  0  0
  4 13  2  0  0  0  0
  5  8  1  0  0  0  0
  5 13  1  0  0  0  0
  5 25  1  0  0  0  0
  6 23  3  0  0  0  0
  7  9  1  0  0  0  0
  7 11  1  0  0  0  0
  7 12  2  0  0  0  0
  8  9  2  0  0  0  0
  8 10  1  0  0  0  0
  9 24  1  0  0  0  0
 10 15  2  0  0  0  0
 10 16  1  0  0  0  0
 11 14  2  0  0  0  0
 12 13  1  0  0  0  0
 12 23  1  0  0  0  0
 14 18  1  0  0  0  0
 14 26  1  0  0  0  0
 15 19  1  0  0  0  0
 16 20  2  0  0  0  0
 16 27  1  0  0  0  0
 17 18  2  0  0  0  0
 17 22  1  0  0  0  0
 18 28  1  0  0  0  0
 19 21  2  0  0  0  0
 19 29  1  0  0  0  0
 20 21  1  0  0  0  0
 21 30  1  0  0  0  0
 22 31  1  0  0  0  0
 22 32  1  0  0  0  0
 22 33  1  0  0  0  0
M  END
> <PUBCHEM_COMPOUND_CID>
49830869

> <PUBCHEM_CONFORMER_RMSD>
0.6

> <PUBCHEM_CONFORMER_DIVERSEORDER>
1
13
22
18
14
6
5
23
10
12
24
3
9
20
15
11
17
16
2
8
21
19
4
7

> <PUBCHEM_MMFF94_PARTIAL_CHARGES>
31
1 -0.11
10 0.03
11 -0.01
12 0.08
13 0.62
14 -0.15
15 0.08
16 -0.15
17 -0.14
18 -0.15
19 -0.15
2 -0.08
20 0.11
21 -0.15
22 0.18
23 0.49
24 0.15
25 0.37
26 0.15
27 0.15
28 0.15
29 0.15
3 -0.53
30 0.15
34 0.45
4 -0.57
5 -0.54
6 -0.56
7 0.05
8 0.08
9 -0.15

> <PUBCHEM_EFFECTIVE_ROTOR_COUNT>
2

> <PUBCHEM_PHARMACOPHORE_FEATURES>
8
1 1 hydrophobe
1 3 donor
1 4 acceptor
1 5 donor
1 6 acceptor
5 2 11 14 17 18 rings
6 10 15 16 19 20 21 rings
6 5 7 8 9 12 13 rings

> <PUBCHEM_HEAVY_ATOM_COUNT>
23

> <PUBCHEM_ATOM_DEF_STEREO_COUNT>
0

> <PUBCHEM_ATOM_UDEF_STEREO_COUNT>
0

> <PUBCHEM_BOND_DEF_STEREO_COUNT>
0

> <PUBCHEM_BOND_UDEF_STEREO_COUNT>
0

> <PUBCHEM_ISOTOPIC_ATOM_COUNT>
0

> <PUBCHEM_COMPONENT_COUNT>
1

> <PUBCHEM_CACTVS_TAUTO_COUNT>
12

> <PUBCHEM_CONFORMER_ID>
02F85BD500000001

> <PUBCHEM_MMFF94_ENERGY>
60.9016

> <PUBCHEM_FEATURE_SELFOVERLAP>
40.597

> <PUBCHEM_SHAPE_FINGERPRINT>
10369192 42 17974284627983701828
11370993 144 18339652243435459235
11405975 8 18411421691943129585
11578080 2 17823122433983624492
11796584 16 17968373451070906570
11963148 33 17975971278499008282
12107183 9 18200050447438621203
12363563 72 18343308028517511510
12403259 226 18335702784372421199
12553582 1 18269005193202382562
12623949 98 17980221973625464511
12633257 1 17988375848687918831
12707595 3 18413109454702056807
12788726 201 17907568138998907329
13140716 1 18200599081543955608
13544592 145 18333726923564948519
13911882 115 18118692251333130963
13955234 65 18127413577406518288
14251751 18 18113335314782149826
14866123 147 17981047405935023793
14910302 57 17895185615214536143
1813 80 17775295927904235724
18222031 100 17917429796264430446
193927 3 18201166472408937238
20567600 70 18408317775124304298
20645477 70 18343577473338156079
20693207 138 18260827107482575511
21033650 10 16805881788570965469
21065201 7 17894342298443812923
221490 88 18409450310095865554
22182313 1 18336535110031676837
22393880 68 17967525762118545475
23559900 14 18187640323519100453
25147074 1 18201173061152857864
3004659 81 17967813791452843458
312423 11 18201170887640514320
314173 85 18059577932030936054
3421961 26 18341896320201834730
38570 142 14044304546514736378
44062 13 18260266326720461511
5104073 3 18272378576770584683
5486654 36 18337405867870186851
59755656 215 18339079397767014084
6823239 73 18335977631940424698
7970288 3 18341612568692997558
8863177 126 18263373640985571131
9709674 26 18335697312605087643

> <PUBCHEM_SHAPE_MULTIPOLES>
461.42
11.49
3.76
1.32
3.15
0.48
0.24
-10.41
0.72
-2.34
-1.69
0.38
-0.19
2.44

> <PUBCHEM_SHAPE_SELFOVERLAP>
984.848

> <PUBCHEM_SHAPE_VOLUME>
260.3

> <PUBCHEM_COORDINATE_TYPE>
2
5
10

$$$$
