2868675
  -OEChem-10062121553D

 32 33  0     0  0  0  0  0  0999 V2000
    4.5279    0.9334   -1.3153 O   0  0  0  0  0  0  0  0  0  0  0  0
    5.5116   -0.5195    0.8403 O   0  0  0  0  0  0  0  0  0  0  0  0
   -2.5339    1.7933   -0.0111 N   0  0  0  0  0  0  0  0  0  0  0  0
   -3.8466    2.0810   -0.0146 N   0  0  0  0  0  0  0  0  0  0  0  0
   -5.7613    0.6461   -0.0201 N   0  0  0  0  0  0  0  0  0  0  0  0
   -0.3286   -2.2030   -1.1447 N   0  0  0  0  0  0  0  0  0  0  0  0
   -3.8806   -2.7342   -0.0138 N   0  0  0  0  0  0  0  0  0  0  0  0
    1.4780    0.4438    0.6396 C   0  0  0  0  0  0  0  0  0  0  0  0
   -2.3325    0.4778   -0.0106 C   0  0  0  0  0  0  0  0  0  0  0  0
   -0.9210    0.0466   -0.0064 C   0  0  0  0  0  0  0  0  0  0  0  0
    0.0642    0.7786    0.5734 C   0  0  0  0  0  0  0  0  0  0  0  0
    2.3399    0.8514   -0.3787 C   0  0  0  0  0  0  0  0  0  0  0  0
   -3.4829   -0.1740   -0.0133 C   0  0  0  0  0  0  0  0  0  0  0  0
    1.9718   -0.2857    1.7211 C   0  0  0  0  0  0  0  0  0  0  0  0
    3.6957    0.5293   -0.3153 C   0  0  0  0  0  0  0  0  0  0  0  0
    4.1893   -0.2002    0.7664 C   0  0  0  0  0  0  0  0  0  0  0  0
    3.3274   -0.6078    1.7845 C   0  0  0  0  0  0  0  0  0  0  0  0
   -4.4212    0.8753   -0.0161 C   0  0  0  0  0  0  0  0  0  0  0  0
   -0.5925   -1.1947   -0.6343 C   0  0  0  0  0  0  0  0  0  0  0  0
   -3.7014   -1.5810   -0.0137 C   0  0  0  0  0  0  0  0  0  0  0  0
    4.6969    0.0437   -2.4172 C   0  0  0  0  0  0  0  0  0  0  0  0
   -0.1681    1.7139    1.0795 H   0  0  0  0  0  0  0  0  0  0  0  0
    1.9631    1.4218   -1.2251 H   0  0  0  0  0  0  0  0  0  0  0  0
    1.3126   -0.6104    2.5227 H   0  0  0  0  0  0  0  0  0  0  0  0
   -1.8799    2.5676   -0.0271 H   0  0  0  0  0  0  0  0  0  0  0  0
    3.6989   -1.1764    2.6328 H   0  0  0  0  0  0  0  0  0  0  0  0
   -6.4333    1.4071   -0.0221 H   0  0  0  0  0  0  0  0  0  0  0  0
   -6.1658   -0.2854   -0.0212 H   0  0  0  0  0  0  0  0  0  0  0  0
    5.6702   -1.0255    1.6557 H   0  0  0  0  0  0  0  0  0  0  0  0
    3.7411   -0.1251   -2.9235 H   0  0  0  0  0  0  0  0  0  0  0  0
    5.1182   -0.9094   -2.0822 H   0  0  0  0  0  0  0  0  0  0  0  0
    5.3915    0.5035   -3.1255 H   0  0  0  0  0  0  0  0  0  0  0  0
  1 15  1  0  0  0  0
  1 21  1  0  0  0  0
  2 16  1  0  0  0  0
  2 29  1  0  0  0  0
  3  4  1  0  0  0  0
  3  9  1  0  0  0  0
  3 25  1  0  0  0  0
  4 18  2  0  0  0  0
  5 18  1  0  0  0  0
  5 27  1  0  0  0  0
  5 28  1  0  0  0  0
  6 19  3  0  0  0  0
  7 20  3  0  0  0  0
  8 11  1  0  0  0  0
  8 12  2  0  0  0  0
  8 14  1  0  0  0  0
  9 10  1  0  0  0  0
  9 13  2  0  0  0  0
 10 11  2  3  0  0  0
 10 19  1  0  0  0  0
 11 22  1  0  0  0  0
 12 15  1  0  0  0  0
 12 23  1  0  0  0  0
 13 18  1  0  0  0  0
 13 20  1  0  0  0  0
 14 17  2  0  0  0  0
 14 24  1  0  0  0  0
 15 16  2  0  0  0  0
 16 17  1  0  0  0  0
 17 26  1  0  0  0  0
 21 30  1  0  0  0  0
 21 31  1  0  0  0  0
 21 32  1  0  0  0  0
M  END
> <PUBCHEM_COMPOUND_CID>
2868675

> <PUBCHEM_CONFORMER_RMSD>
0.6

> <PUBCHEM_CONFORMER_DIVERSEORDER>
4
28
27
12
26
14
20
30
17
2
33
11
19
34
25
5
24
16
22
10
7
29
18
9
6
13
36
1
35
15
21
8
32
3
23
31

> <PUBCHEM_MMFF94_PARTIAL_CHARGES>
29
1 -0.36
10 0.11
11 -0.18
12 -0.15
13 0.02
14 -0.15
15 0.08
16 0.08
17 -0.15
18 0.37
19 0.49
2 -0.53
20 0.54
21 0.28
22 0.15
23 0.15
24 0.15
25 0.27
26 0.15
27 0.4
28 0.4
29 0.45
3 0.3
4 -0.71
5 -0.88
6 -0.56
7 -0.56
8 0.03
9 -0.2

> <PUBCHEM_EFFECTIVE_ROTOR_COUNT>
3

> <PUBCHEM_PHARMACOPHORE_FEATURES>
9
1 1 acceptor
1 2 donor
1 3 donor
1 5 donor
1 6 acceptor
1 7 acceptor
3 4 5 18 cation
5 3 4 9 13 18 rings
6 8 12 14 15 16 17 rings

> <PUBCHEM_HEAVY_ATOM_COUNT>
21

> <PUBCHEM_ATOM_DEF_STEREO_COUNT>
0

> <PUBCHEM_ATOM_UDEF_STEREO_COUNT>
0

> <PUBCHEM_BOND_DEF_STEREO_COUNT>
0

> <PUBCHEM_BOND_UDEF_STEREO_COUNT>
1

> <PUBCHEM_ISOTOPIC_ATOM_COUNT>
0

> <PUBCHEM_COMPONENT_COUNT>
1

> <PUBCHEM_CACTVS_TAUTO_COUNT>
18

> <PUBCHEM_CONFORMER_ID>
002BC5C300000004

> <PUBCHEM_MMFF94_ENERGY>
60.7115

> <PUBCHEM_FEATURE_SELFOVERLAP>
45.671

> <PUBCHEM_SHAPE_FINGERPRINT>
10616163 171 18409162234113552619
12107183 9 17248346008143265177
12236239 1 18040714757757828800
12390115 104 17986402096867994729
12616971 3 17458339732445300720
13167823 11 18040994038027227083
13544592 145 17418097602985175524
13675066 3 17632291306654431138
13760787 19 18187364337463134299
13760787 5 17022899064439254934
14386348 63 17131830975859321080
15342168 16 15792312499980533700
16752209 62 18270386304408646735
17804303 29 18271521000624308913
17834072 33 17894631469579892480
18186145 218 16988559104390397985
19026448 5 17967247602666144088
19422 9 18114174246390581362
20612939 158 16877949317601075428
20645477 70 14852152980385288056
21033648 29 16844995849724484993
23175994 123 16988846098653571345
23557571 272 17988094300480421245
23559900 14 17560806546012619036
34797466 226 18130514114498226652
474 4 16660656197368139676
5104073 3 18341046423346296273
59755656 215 18060139817265121447
633830 44 17275096224204045425
8272917 22 17749668467913345242

> <PUBCHEM_SHAPE_MULTIPOLES>
395.53
11.88
1.81
1.45
0.04
0.76
0.32
-0.91
1.34
-2.6
0.28
2.83
0.21
-0.8

> <PUBCHEM_SHAPE_SELFOVERLAP>
857.987

> <PUBCHEM_SHAPE_VOLUME>
212.5

> <PUBCHEM_COORDINATE_TYPE>
2
5
10

$$$$
