5329902
  -OEChem-10052115143D

 49 52  0     0  0  0  0  0  0999 V2000
    7.5424    1.9604    0.6926 O   0  0  0  0  0  0  0  0  0  0  0  0
   -2.5842    1.0414   -0.6765 O   0  0  0  0  0  0  0  0  0  0  0  0
    5.2718    2.2047    1.2599 N   0  0  0  0  0  0  0  0  0  0  0  0
   -1.8288   -0.9924    0.2071 N   0  0  0  0  0  0  0  0  0  0  0  0
   -4.0896   -0.5277    0.1843 N   0  0  0  0  0  0  0  0  0  0  0  0
    4.4876    0.3887    0.1105 C   0  0  0  0  0  0  0  0  0  0  0  0
    3.7504   -0.6219   -0.4767 C   0  0  0  0  0  0  0  0  0  0  0  0
    4.0306    1.5071    0.9818 C   0  0  0  0  0  0  0  0  0  0  0  0
    5.8684    0.4556   -0.0819 C   0  0  0  0  0  0  0  0  0  0  0  0
    2.3194   -0.7196   -0.2964 C   0  0  0  0  0  0  0  0  0  0  0  0
    6.3755    1.6182    0.6532 C   0  0  0  0  0  0  0  0  0  0  0  0
    4.4278   -1.5625   -1.2601 C   0  0  0  0  0  0  0  0  0  0  0  0
    6.5616   -0.4592   -0.8497 C   0  0  0  0  0  0  0  0  0  0  0  0
    1.7981   -1.4586    0.7663 C   0  0  0  0  0  0  0  0  0  0  0  0
    0.4172   -1.5539    0.9392 C   0  0  0  0  0  0  0  0  0  0  0  0
    5.8208   -1.4815   -1.4446 C   0  0  0  0  0  0  0  0  0  0  0  0
    1.4582   -0.0761   -1.1857 C   0  0  0  0  0  0  0  0  0  0  0  0
   -0.4431   -0.9101    0.0498 C   0  0  0  0  0  0  0  0  0  0  0  0
    0.0773   -0.1713   -1.0126 C   0  0  0  0  0  0  0  0  0  0  0  0
   -0.1126   -2.3522    2.0858 C   0  0  0  0  0  0  0  0  0  0  0  0
   -2.8152   -0.0429   -0.1510 C   0  0  0  0  0  0  0  0  0  0  0  0
   -5.3401    0.1070   -0.0043 C   0  0  0  0  0  0  0  0  0  0  0  0
   -6.4966   -0.5411    0.3967 C   0  0  0  0  0  0  0  0  0  0  0  0
   -7.7293    0.0846    0.2102 C   0  0  0  0  0  0  0  0  0  0  0  0
   -5.3813    1.3631   -0.5866 C   0  0  0  0  0  0  0  0  0  0  0  0
   -7.7879    1.3497   -0.3746 C   0  0  0  0  0  0  0  0  0  0  0  0
   -6.6139    1.9889   -0.7731 C   0  0  0  0  0  0  0  0  0  0  0  0
   -8.9847   -0.5982    0.6365 C   0  0  0  0  0  0  0  0  0  0  0  0
    3.3533    2.1931    0.4670 H   0  0  0  0  0  0  0  0  0  0  0  0
    3.6073    1.1591    1.9274 H   0  0  0  0  0  0  0  0  0  0  0  0
    5.3293    3.0366    1.8388 H   0  0  0  0  0  0  0  0  0  0  0  0
    3.8865   -2.3750   -1.7410 H   0  0  0  0  0  0  0  0  0  0  0  0
    7.6341   -0.3945   -0.9900 H   0  0  0  0  0  0  0  0  0  0  0  0
    2.4699   -1.9607    1.4596 H   0  0  0  0  0  0  0  0  0  0  0  0
    6.3234   -2.2248   -2.0579 H   0  0  0  0  0  0  0  0  0  0  0  0
    1.8476    0.4980   -2.0232 H   0  0  0  0  0  0  0  0  0  0  0  0
   -0.5579    0.3161   -1.7455 H   0  0  0  0  0  0  0  0  0  0  0  0
    0.6931   -2.7268    2.7270 H   0  0  0  0  0  0  0  0  0  0  0  0
   -0.7633   -1.7380    2.7172 H   0  0  0  0  0  0  0  0  0  0  0  0
   -0.6702   -3.2217    1.7222 H   0  0  0  0  0  0  0  0  0  0  0  0
   -2.1598   -1.7245    0.8292 H   0  0  0  0  0  0  0  0  0  0  0  0
   -4.1279   -1.4491    0.6127 H   0  0  0  0  0  0  0  0  0  0  0  0
   -6.4494   -1.5277    0.8508 H   0  0  0  0  0  0  0  0  0  0  0  0
   -4.5220    1.9240   -0.9218 H   0  0  0  0  0  0  0  0  0  0  0  0
   -8.7421    1.8469   -0.5269 H   0  0  0  0  0  0  0  0  0  0  0  0
   -6.6610    2.9738   -1.2288 H   0  0  0  0  0  0  0  0  0  0  0  0
   -8.8118   -1.2287    1.5153 H   0  0  0  0  0  0  0  0  0  0  0  0
   -9.7574    0.1281    0.9109 H   0  0  0  0  0  0  0  0  0  0  0  0
   -9.3659   -1.2247   -0.1760 H   0  0  0  0  0  0  0  0  0  0  0  0
  1 11  2  0  0  0  0
  2 21  2  0  0  0  0
  3  8  1  0  0  0  0
  3 11  1  0  0  0  0
  3 31  1  0  0  0  0
  4 18  1  0  0  0  0
  4 21  1  0  0  0  0
  4 41  1  0  0  0  0
  5 21  1  0  0  0  0
  5 22  1  0  0  0  0
  5 42  1  0  0  0  0
  6  7  2  0  0  0  0
  6  8  1  0  0  0  0
  6  9  1  0  0  0  0
  7 10  1  0  0  0  0
  7 12  1  0  0  0  0
  8 29  1  0  0  0  0
  8 30  1  0  0  0  0
  9 11  1  0  0  0  0
  9 13  2  0  0  0  0
 10 14  2  0  0  0  0
 10 17  1  0  0  0  0
 12 16  2  0  0  0  0
 12 32  1  0  0  0  0
 13 16  1  0  0  0  0
 13 33  1  0  0  0  0
 14 15  1  0  0  0  0
 14 34  1  0  0  0  0
 15 18  2  0  0  0  0
 15 20  1  0  0  0  0
 16 35  1  0  0  0  0
 17 19  2  0  0  0  0
 17 36  1  0  0  0  0
 18 19  1  0  0  0  0
 19 37  1  0  0  0  0
 20 38  1  0  0  0  0
 20 39  1  0  0  0  0
 20 40  1  0  0  0  0
 22 23  1  0  0  0  0
 22 25  2  0  0  0  0
 23 24  2  0  0  0  0
 23 43  1  0  0  0  0
 24 26  1  0  0  0  0
 24 28  1  0  0  0  0
 25 27  1  0  0  0  0
 25 44  1  0  0  0  0
 26 27  2  0  0  0  0
 26 45  1  0  0  0  0
 27 46  1  0  0  0  0
 28 47  1  0  0  0  0
 28 48  1  0  0  0  0
 28 49  1  0  0  0  0
M  END
> <PUBCHEM_COMPOUND_CID>
5329902

> <PUBCHEM_CONFORMER_RMSD>
0.8

> <PUBCHEM_CONFORMER_DIVERSEORDER>
1
13
12
28
24
15
9
14
6
26
16
4
22
3
19
27
18
7
10
23
17
8
11
25
2
20
21
5

> <PUBCHEM_MMFF94_PARTIAL_CHARGES>
39
1 -0.57
11 0.54
12 -0.15
13 -0.15
14 -0.15
15 -0.14
16 -0.15
17 -0.15
18 0.12
19 -0.15
2 -0.57
20 0.14
21 0.69
22 0.12
23 -0.15
24 -0.14
25 -0.15
26 -0.15
27 -0.15
28 0.14
3 -0.73
31 0.37
32 0.15
33 0.15
34 0.15
35 0.15
36 0.15
37 0.15
4 -0.55
41 0.37
42 0.37
43 0.15
44 0.15
45 0.15
46 0.15
5 -0.55
6 -0.14
8 0.44
9 0.09

> <PUBCHEM_EFFECTIVE_ROTOR_COUNT>
5.4

> <PUBCHEM_PHARMACOPHORE_FEATURES>
9
1 1 acceptor
1 2 acceptor
1 3 donor
1 4 donor
1 5 donor
5 3 6 8 9 11 rings
6 10 14 15 17 18 19 rings
6 22 23 24 25 26 27 rings
6 6 7 9 12 13 16 rings

> <PUBCHEM_HEAVY_ATOM_COUNT>
28

> <PUBCHEM_ATOM_DEF_STEREO_COUNT>
0

> <PUBCHEM_ATOM_UDEF_STEREO_COUNT>
0

> <PUBCHEM_BOND_DEF_STEREO_COUNT>
0

> <PUBCHEM_BOND_UDEF_STEREO_COUNT>
0

> <PUBCHEM_ISOTOPIC_ATOM_COUNT>
0

> <PUBCHEM_COMPONENT_COUNT>
1

> <PUBCHEM_CACTVS_TAUTO_COUNT>
6

> <PUBCHEM_CONFORMER_ID>
005153EE00000001

> <PUBCHEM_MMFF94_ENERGY>
96.8289

> <PUBCHEM_FEATURE_SELFOVERLAP>
45.809

> <PUBCHEM_SHAPE_FINGERPRINT>
10 15 18187363250641339953
10299344 5 13912325689885372609
11136131 41 17313096407576985467
11181472 205 17629769972886228033
11315181 36 18201721740021295377
11646440 116 18260836994429264485
11719270 70 16877942720130733539
11991303 11 16845280670844515279
12730499 353 18412265013098730686
12838862 33 17676757743906471055
13533116 47 18041275453107017554
13668630 136 10663815283097363229
13692114 37 17968099780456228019
14028597 1 15357969024157296477
14251764 18 15574717997697495039
14294032 229 17095240302766410863
14461889 52 17821734940192194643
14556957 393 16487267577249208001
14933364 13 18343584032117187773
150020 25 18411419484588558261
15183329 4 12823299005123609527
15419008 47 18408601444592472029
18335252 114 17847055575766294632
20157964 124 17989490714912844518
20554085 129 17894346678999355610
21033648 29 18268137829468848120
21130935 74 17895472515120291187
21344244 78 14418120847710976828
21424621 283 18261109673117566443
21521721 280 18059859471622216179
21641784 216 15625956334299065129
221357 26 18059857234150009440
22224240 67 17748826323895781187
22956985 138 16011255866702807146
23576562 1 14979093929958409705
24771293 8 18187642578641019724
249057 3 17703790319290689366
249999 5 17677605372049425954
255183 451 16700071323177095086
34797466 226 18060423499301062799
3633792 109 17275113808422439614
397830 11 18268154326037675403
4073 2 18410576235857525118
4093350 32 17917712387932391236
4098825 35 17632303315847221113
437795 51 18341890801221821209
44317340 157 17846492660261821248
5109719 28 18261120702773164417
5385378 56 17531240621927217778
5758199 1 18040155102555994107
59682541 35 18113340838673984529
59682541 52 17917999343667361718
9658208 31 18187652431190845770
9689198 14 18342176653091648013

> <PUBCHEM_SHAPE_MULTIPOLES>
549.55
25.6
2.04
1.27
32.32
0.3
-0.15
10.31
0.07
-1.5
-0.67
-1.41
-0.33
3.03

> <PUBCHEM_SHAPE_SELFOVERLAP>
1216.068

> <PUBCHEM_SHAPE_VOLUME>
295.6

> <PUBCHEM_COORDINATE_TYPE>
2
5
10

$$$$
