46232556
  -OEChem-10062122033D

 45 48  0     1  0  0  0  0  0999 V2000
    1.9915   -2.3054    0.7137 Cl  0  0  0  0  0  0  0  0  0  0  0  0
    5.4703    1.8870    0.5512 Cl  0  0  0  0  0  0  0  0  0  0  0  0
    3.9151   -3.4962   -1.1543 F   0  0  0  0  0  0  0  0  0  0  0  0
   -7.6060   -1.9080    0.6715 O   0  0  0  0  0  0  0  0  0  0  0  0
    2.4353    1.6636    0.8718 O   0  0  0  0  0  0  0  0  0  0  0  0
   -7.4923    0.0258   -0.5821 N   0  0  0  0  0  0  0  0  0  0  0  0
   -2.2850    1.2110   -1.9698 N   0  0  0  0  0  0  0  0  0  0  0  0
   -4.7365    0.1158    0.6708 C   0  0  1  0  0  0  0  0  0  0  0  0
   -5.4845   -1.0690    0.1334 C   0  0  1  0  0  0  0  0  0  0  0  0
   -4.7807   -1.1627    1.4554 C   0  0  0  0  0  0  0  0  0  0  0  0
   -3.4647    0.5323    0.0242 C   0  0  0  0  0  0  0  0  0  0  0  0
   -6.9561   -1.0355    0.1076 C   0  0  0  0  0  0  0  0  0  0  0  0
   -2.2892    0.6406    0.7535 C   0  0  0  0  0  0  0  0  0  0  0  0
   -3.4090    0.8264   -1.3230 C   0  0  0  0  0  0  0  0  0  0  0  0
   -1.1020    1.0361    0.1224 C   0  0  0  0  0  0  0  0  0  0  0  0
   -1.1458    1.3153   -1.2596 C   0  0  0  0  0  0  0  0  0  0  0  0
    0.1046    1.1551    0.8327 C   0  0  0  0  0  0  0  0  0  0  0  0
    0.0338    1.7081   -1.8859 C   0  0  0  0  0  0  0  0  0  0  0  0
    1.2694    1.5497    0.1811 C   0  0  0  0  0  0  0  0  0  0  0  0
    1.2337    1.8264   -1.1799 C   0  0  0  0  0  0  0  0  0  0  0  0
    2.9279    0.4879    1.5142 C   0  0  1  0  0  0  0  0  0  0  0  0
    3.8049   -0.2757    0.5509 C   0  0  0  0  0  0  0  0  0  0  0  0
    3.6760    0.8788    2.7839 C   0  0  0  0  0  0  0  0  0  0  0  0
    3.4398   -1.5578    0.1406 C   0  0  0  0  0  0  0  0  0  0  0  0
    4.9807    0.3018    0.0714 C   0  0  0  0  0  0  0  0  0  0  0  0
    4.2506   -2.2628   -0.7492 C   0  0  0  0  0  0  0  0  0  0  0  0
    5.7915   -0.4032   -0.8183 C   0  0  0  0  0  0  0  0  0  0  0  0
    5.4266   -1.6855   -1.2283 C   0  0  0  0  0  0  0  0  0  0  0  0
   -5.3306    0.9287    1.0839 H   0  0  0  0  0  0  0  0  0  0  0  0
   -5.0385   -1.6430   -0.6738 H   0  0  0  0  0  0  0  0  0  0  0  0
   -3.8992   -1.7916    1.5045 H   0  0  0  0  0  0  0  0  0  0  0  0
   -5.3729   -1.1723    2.3634 H   0  0  0  0  0  0  0  0  0  0  0  0
   -2.2916    0.4217    1.8196 H   0  0  0  0  0  0  0  0  0  0  0  0
   -4.2913    0.7663   -1.9530 H   0  0  0  0  0  0  0  0  0  0  0  0
   -8.4970    0.1437   -0.6599 H   0  0  0  0  0  0  0  0  0  0  0  0
   -6.9150    0.7235   -1.0407 H   0  0  0  0  0  0  0  0  0  0  0  0
    0.1191    0.9572    1.9027 H   0  0  0  0  0  0  0  0  0  0  0  0
    0.0325    1.9303   -2.9514 H   0  0  0  0  0  0  0  0  0  0  0  0
    2.1355    2.1346   -1.7021 H   0  0  0  0  0  0  0  0  0  0  0  0
    2.0943   -0.1164    1.8757 H   0  0  0  0  0  0  0  0  0  0  0  0
    4.1471    1.8635    2.7475 H   0  0  0  0  0  0  0  0  0  0  0  0
    4.4019    0.1220    3.0993 H   0  0  0  0  0  0  0  0  0  0  0  0
    2.9471    0.9745    3.6001 H   0  0  0  0  0  0  0  0  0  0  0  0
    6.7109    0.0323   -1.2015 H   0  0  0  0  0  0  0  0  0  0  0  0
    6.0576   -2.2345   -1.9210 H   0  0  0  0  0  0  0  0  0  0  0  0
  1 24  1  0  0  0  0
  2 25  1  0  0  0  0
  3 26  1  0  0  0  0
  4 12  2  0  0  0  0
  5 19  1  0  0  0  0
  5 21  1  0  0  0  0
  6 12  1  0  0  0  0
  6 35  1  0  0  0  0
  6 36  1  0  0  0  0
  7 14  1  0  0  0  0
  7 16  2  0  0  0  0
  8  9  1  0  0  0  0
  8 10  1  0  0  0  0
  8 11  1  0  0  0  0
  8 29  1  0  0  0  0
  9 10  1  0  0  0  0
  9 12  1  0  0  0  0
  9 30  1  0  0  0  0
 10 31  1  0  0  0  0
 10 32  1  0  0  0  0
 11 13  1  0  0  0  0
 11 14  2  0  0  0  0
 13 15  2  0  0  0  0
 13 33  1  0  0  0  0
 14 34  1  0  0  0  0
 15 16  1  0  0  0  0
 15 17  1  0  0  0  0
 16 18  1  0  0  0  0
 17 19  2  0  0  0  0
 17 37  1  0  0  0  0
 18 20  2  0  0  0  0
 18 38  1  0  0  0  0
 19 20  1  0  0  0  0
 20 39  1  0  0  0  0
 21 22  1  0  0  0  0
 21 23  1  0  0  0  0
 21 40  1  0  0  0  0
 22 24  1  0  0  0  0
 22 25  2  0  0  0  0
 23 41  1  0  0  0  0
 23 42  1  0  0  0  0
 23 43  1  0  0  0  0
 24 26  2  0  0  0  0
 25 27  1  0  0  0  0
 26 28  1  0  0  0  0
 27 28  2  0  0  0  0
 27 44  1  0  0  0  0
 28 45  1  0  0  0  0
M  END
> <PUBCHEM_COMPOUND_CID>
46232556

> <PUBCHEM_CONFORMER_RMSD>
1

> <PUBCHEM_CONFORMER_DIVERSEORDER>
23
84
321
325
254
76
403
326
531
85
361
195
196
441
11
266
207
481
428
228
530
63
503
314
420
86
285
474
179
462
260
480
209
18
72
453
137
60
536
4
256
346
286
112
308
125
197
208
341
500
334
541
58
200
378
369
29
69
310
232
175
50
473
24
345
255
292
37
193
328
358
2
71
492
90
502
124
483
391
272
74
433
5
67
377
423
432
242
315
122
472
349
75
79
62
31
3
343
30
265
277
26
318
59
167
93
526
227
113
51
231
188
164
234
289
46
182
392
244
15
396
22
302
376
166
222
25
49
169
117
290
103
36
344
241
92
7
271
44
6
27
94
14
65
19
81
1
118
163
33
20

> <PUBCHEM_MMFF94_PARTIAL_CHARGES>
39
1 -0.18
10 -0.2
11 -0.03
12 0.63
13 -0.15
14 0.16
16 0.31
17 -0.15
18 -0.15
19 0.08
2 -0.18
20 -0.15
21 0.42
22 -0.14
24 0.18
25 0.18
26 0.19
27 -0.15
28 -0.15
29 0.1
3 -0.19
30 0.1
31 0.1
32 0.1
33 0.15
34 0.15
35 0.37
36 0.37
37 0.15
38 0.15
39 0.15
4 -0.57
44 0.15
45 0.15
5 -0.36
6 -0.8
7 -0.62
8 -0.07
9 -0.1

> <PUBCHEM_EFFECTIVE_ROTOR_COUNT>
5.6

> <PUBCHEM_PHARMACOPHORE_FEATURES>
7
1 4 acceptor
1 5 acceptor
1 6 donor
1 7 acceptor
6 15 16 17 18 19 20 rings
6 22 24 25 26 27 28 rings
6 7 11 13 14 15 16 rings

> <PUBCHEM_HEAVY_ATOM_COUNT>
28

> <PUBCHEM_ATOM_DEF_STEREO_COUNT>
1

> <PUBCHEM_ATOM_UDEF_STEREO_COUNT>
2

> <PUBCHEM_BOND_DEF_STEREO_COUNT>
0

> <PUBCHEM_BOND_UDEF_STEREO_COUNT>
0

> <PUBCHEM_ISOTOPIC_ATOM_COUNT>
0

> <PUBCHEM_COMPONENT_COUNT>
1

> <PUBCHEM_CACTVS_TAUTO_COUNT>
2

> <PUBCHEM_CONFORMER_ID>
02C173EC00000017

> <PUBCHEM_MMFF94_ENERGY>
89.6462

> <PUBCHEM_FEATURE_SELFOVERLAP>
35.554

> <PUBCHEM_SHAPE_FINGERPRINT>
10165383 225 18271806891513689344
10316853 100 18408608088663843802
10692045 39 13038918668190170604
11135609 127 12685098136874555734
117089 54 17414170018576433302
11796584 16 17894630396434031523
11991303 11 17907862808343050001
12596602 18 17846503633987711233
12623949 98 18058743398716819510
12633257 1 15554439687102615168
12778500 126 17417542323389677723
13402501 40 18335426759145200690
13533116 47 17918274263785318315
13583140 156 17917699185077024337
13617811 41 15502370154043721413
13673619 4 18343587309214372156
13782708 43 18190182287561728994
14251757 52 7925647596462227575
14251764 30 18128826248443962646
14556957 393 14707203297728998831
14739800 52 10879723031158307799
14767858 380 15719392836822844481
14951699 99 12534756372229074882
15131766 46 16842451734986234857
15183329 4 17167578289886509965
15238133 3 12463566301196206170
15352257 5 18411703179546642887
15475509 35 18131353003146675802
15537594 2 17632572769073456628
15721738 202 17989210321672216147
1813 80 17675924296163888989
18222031 100 17967531285525401585
20554085 129 12823302278052252157
20567600 75 18412258407565519701
20715895 44 10881403140522552094
21033650 10 16444760324707204628
21150785 3 13479134618960274201
21315763 76 12612759012267675782
21623969 137 18411979165786803130
21774942 28 11026059288277628414
21987483 16 16341994707104597823
23016692 55 17603586331192975229
23522609 53 16588876642333501973
23559900 14 17968096490695511673
239999 70 18113899386238805208
25222932 49 17677038140392788122
2838139 119 8935001430501216179
3004659 81 17749108928686169865
3459 39 13686021943324815891
345986 75 16844725318583102234
34797466 226 18113900498229367436
3737641 26 18199474251410880710
4325135 7 17095240350174301436
4340502 62 18200869678101468584
437795 51 18202003278726352272
437815 12 18333452054264257069
439807 62 18040997285065148938
4516262 110 17273396486755375888
46194498 28 18040998474918731444
465052 167 17632863005852009812
5385378 56 12895087183957635692
54039377 194 17560246808979838814
57724786 102 12103261821216078234
59755656 215 18186799180250126203
7237137 82 16009018459424334917
8509985 295 12463567366437792114
86090 222 18411140225230053258

> <PUBCHEM_SHAPE_MULTIPOLES>
550.99
17.45
2.57
1.76
24.14
1.48
0.31
9.19
0.57
-2.47
-0.7
-1.18
-0.45
2.63

> <PUBCHEM_SHAPE_SELFOVERLAP>
1193.955

> <PUBCHEM_SHAPE_VOLUME>
304.7

> <PUBCHEM_COORDINATE_TYPE>
2
5
10

$$$$
