49830433
  -OEChem-10052115183D

 36 39  0     0  0  0  0  0  0999 V2000
   -0.8665   -0.3534    2.4032 I   0  0  0  0  0  0  0  0  0  0  0  0
   -1.9263   -1.4690   -0.2679 N   0  0  0  0  0  0  0  0  0  0  0  0
    5.4597    0.2539    0.5219 N   0  0  0  0  0  0  0  0  0  0  0  0
   -0.2449   -1.6839   -1.5922 N   0  0  0  0  0  0  0  0  0  0  0  0
   -1.5594   -1.8534   -1.5011 N   0  0  0  0  0  0  0  0  0  0  0  0
    5.5180    1.5375    0.1298 N   0  0  0  0  0  0  0  0  0  0  0  0
    3.8318    2.9806   -0.7678 N   0  0  0  0  0  0  0  0  0  0  0  0
    1.5778   -0.8832   -0.1334 C   0  0  0  0  0  0  0  0  0  0  0  0
    3.4150    0.6784   -0.1477 C   0  0  0  0  0  0  0  0  0  0  0  0
    4.2251   -0.3204    0.3807 C   0  0  0  0  0  0  0  0  0  0  0  0
    0.1988   -1.1891   -0.3973 C   0  0  0  0  0  0  0  0  0  0  0  0
    2.0638    0.4002   -0.4127 C   0  0  0  0  0  0  0  0  0  0  0  0
   -3.3130   -1.5426    0.1217 C   0  0  0  0  0  0  0  0  0  0  0  0
    2.4134   -1.8678    0.3971 C   0  0  0  0  0  0  0  0  0  0  0  0
   -0.8601   -1.0446    0.4635 C   0  0  0  0  0  0  0  0  0  0  0  0
    3.7607   -1.6061    0.6667 C   0  0  0  0  0  0  0  0  0  0  0  0
   -4.0134   -0.2067    0.0943 C   0  0  0  0  0  0  0  0  0  0  0  0
    4.2722    1.7925   -0.2764 C   0  0  0  0  0  0  0  0  0  0  0  0
   -4.6301    0.2814    1.2462 C   0  0  0  0  0  0  0  0  0  0  0  0
   -4.0442    0.5402   -1.0832 C   0  0  0  0  0  0  0  0  0  0  0  0
   -5.2778    1.5166    1.2206 C   0  0  0  0  0  0  0  0  0  0  0  0
   -4.6918    1.7753   -1.1090 C   0  0  0  0  0  0  0  0  0  0  0  0
   -5.3087    2.2635    0.0430 C   0  0  0  0  0  0  0  0  0  0  0  0
    1.4137    1.1669   -0.8260 H   0  0  0  0  0  0  0  0  0  0  0  0
   -3.3549   -2.0035    1.1151 H   0  0  0  0  0  0  0  0  0  0  0  0
   -3.8271   -2.2322   -0.5597 H   0  0  0  0  0  0  0  0  0  0  0  0
    2.0266   -2.8628    0.6105 H   0  0  0  0  0  0  0  0  0  0  0  0
    4.4112   -2.3694    1.0788 H   0  0  0  0  0  0  0  0  0  0  0  0
    6.3040   -0.1755    0.8790 H   0  0  0  0  0  0  0  0  0  0  0  0
   -4.6177   -0.2906    2.1700 H   0  0  0  0  0  0  0  0  0  0  0  0
   -3.5776    0.1727   -1.9928 H   0  0  0  0  0  0  0  0  0  0  0  0
   -5.7587    1.8964    2.1173 H   0  0  0  0  0  0  0  0  0  0  0  0
   -4.7177    2.3561   -2.0264 H   0  0  0  0  0  0  0  0  0  0  0  0
    4.4479    3.7821   -0.8607 H   0  0  0  0  0  0  0  0  0  0  0  0
    2.8741    3.1361   -1.0672 H   0  0  0  0  0  0  0  0  0  0  0  0
   -5.8135    3.2249    0.0228 H   0  0  0  0  0  0  0  0  0  0  0  0
  1 15  1  0  0  0  0
  2  5  1  0  0  0  0
  2 13  1  0  0  0  0
  2 15  1  0  0  0  0
  3  6  1  0  0  0  0
  3 10  1  0  0  0  0
  3 29  1  0  0  0  0
  4  5  2  0  0  0  0
  4 11  1  0  0  0  0
  6 18  2  0  0  0  0
  7 18  1  0  0  0  0
  7 34  1  0  0  0  0
  7 35  1  0  0  0  0
  8 11  1  0  0  0  0
  8 12  2  0  0  0  0
  8 14  1  0  0  0  0
  9 10  2  0  0  0  0
  9 12  1  0  0  0  0
  9 18  1  0  0  0  0
 10 16  1  0  0  0  0
 11 15  2  0  0  0  0
 12 24  1  0  0  0  0
 13 17  1  0  0  0  0
 13 25  1  0  0  0  0
 13 26  1  0  0  0  0
 14 16  2  0  0  0  0
 14 27  1  0  0  0  0
 16 28  1  0  0  0  0
 17 19  2  0  0  0  0
 17 20  1  0  0  0  0
 19 21  1  0  0  0  0
 19 30  1  0  0  0  0
 20 22  2  0  0  0  0
 20 31  1  0  0  0  0
 21 23  2  0  0  0  0
 21 32  1  0  0  0  0
 22 23  1  0  0  0  0
 22 33  1  0  0  0  0
 23 36  1  0  0  0  0
M  END
> <PUBCHEM_COMPOUND_CID>
49830433

> <PUBCHEM_CONFORMER_RMSD>
0.6

> <PUBCHEM_CONFORMER_DIVERSEORDER>
1
33
12
46
32
40
45
8
36
52
35
41
44
29
16
42
50
10
31
54
47
38
11
18
55
49
34
13
48
28
2
7
51
14
27
19
39
21
15
37
43
30
17
9
25
53
4
26
6
20
3
24
22
5
23

> <PUBCHEM_MMFF94_PARTIAL_CHARGES>
33
1 -0.03
10 -0.15
11 0.17
12 -0.15
13 0.4
14 -0.15
15 -0.12
16 -0.15
17 -0.14
18 0.37
19 -0.15
2 0.31
20 -0.15
21 -0.15
22 -0.15
23 -0.15
24 0.15
27 0.15
28 0.15
29 0.27
3 0.3
30 0.15
31 0.15
32 0.15
33 0.15
34 0.4
35 0.4
36 0.15
4 -0.23
5 -0.42
6 -0.71
7 -0.88
8 0.05

> <PUBCHEM_EFFECTIVE_ROTOR_COUNT>
3

> <PUBCHEM_PHARMACOPHORE_FEATURES>
8
1 1 hydrophobe
1 3 donor
1 7 donor
3 6 7 18 cation
5 2 4 5 11 15 rings
5 3 6 9 10 18 rings
6 17 19 20 21 22 23 rings
6 8 9 10 12 14 16 rings

> <PUBCHEM_HEAVY_ATOM_COUNT>
23

> <PUBCHEM_ATOM_DEF_STEREO_COUNT>
0

> <PUBCHEM_ATOM_UDEF_STEREO_COUNT>
0

> <PUBCHEM_BOND_DEF_STEREO_COUNT>
0

> <PUBCHEM_BOND_UDEF_STEREO_COUNT>
0

> <PUBCHEM_ISOTOPIC_ATOM_COUNT>
0

> <PUBCHEM_COMPONENT_COUNT>
1

> <PUBCHEM_CACTVS_TAUTO_COUNT>
13

> <PUBCHEM_CONFORMER_ID>
02F85A2100000001

> <PUBCHEM_MMFF94_ENERGY>
48.677

> <PUBCHEM_FEATURE_SELFOVERLAP>
40.688

> <PUBCHEM_SHAPE_FINGERPRINT>
10498660 4 17060061479653758610
105312 117 17346599694467165519
11089746 13 17846769733271639032
11370993 144 17894910685625643867
11595378 159 16298654002150414756
12107183 9 18192986028604989402
12236239 1 18272932756628075402
12403259 118 18339070588119112018
12422481 6 18114734967414543596
12633257 1 16153707690974179348
12788726 201 17346044350943381073
12892183 10 17531250526453896811
12969540 114 16774074085636927975
13103583 49 12685383903219641605
13544653 18 9583511036594494075
13583140 156 18335430105167077539
13675066 3 17458629978014592759
13785724 45 17906731402419964042
14251764 38 18264212426307171009
14576447 43 9583522023289518854
14790565 3 17972326389226837684
14848178 5 9295291607977011389
15163728 17 17846511309241955679
15188451 53 15719687549679760561
15209294 21 17313100835254866075
15238133 3 17894921719649614380
15475509 84 17899119526359195224
1601671 61 18343300370865148736
17357779 13 14907903794564939634
17870717 6 13110955410826448817
17959699 21 18341049700553873072
200 152 9151176467071923214
20511986 3 18271794740454525600
20715895 44 18197215850227167121
20832881 197 17606395450247979450
21054139 6 10087643706657821428
21315764 268 18042401340371453741
21421861 104 17895741899742672194
22393880 68 12679467443586834269
22950370 63 7925621229035238823
23402539 116 16200435766717995450
235170 7 13470404431536315049
23559900 14 17703515380990972174
2838139 119 18410286987227080405
33382 64 9799401248382901821
351380 3 11386372534317772961
4259306 186 9871744685384580913
46194498 28 13901031506771996617
474 4 18262518212454072090
5104073 3 18114177544836054282
57724786 102 18198913517623212419
633830 44 18411979139569347399
636775 72 17692529332101914880
7970288 3 10737297861163848833
8272917 22 18410013209116801978
999808 66 12974145360715242912

> <PUBCHEM_SHAPE_MULTIPOLES>
455.38
13.29
2.5
1.52
0.41
1.13
-0.58
9.24
-1.15
-0.73
0.55
1.36
-0.34
-0.49

> <PUBCHEM_SHAPE_SELFOVERLAP>
993.67

> <PUBCHEM_SHAPE_VOLUME>
252.9

> <PUBCHEM_COORDINATE_TYPE>
2
5
10

$$$$
