25263111
  -OEChem-10062122013D

 50 53  0     0  0  0  0  0  0999 V2000
   -0.5876    3.3463   -0.2447 S   0  0  0  0  0  0  0  0  0  0  0  0
    4.6579   -1.6209   -2.4907 F   0  0  0  0  0  0  0  0  0  0  0  0
    2.6459   -1.9842   -1.7667 F   0  0  0  0  0  0  0  0  0  0  0  0
    3.4490    0.0367   -1.7696 F   0  0  0  0  0  0  0  0  0  0  0  0
    2.2258    0.7815    0.4268 O   0  0  0  0  0  0  0  0  0  0  0  0
   -3.6251   -2.9895   -0.7131 O   0  0  0  0  0  0  0  0  0  0  0  0
   -6.2725   -2.2956   -0.3151 O   0  0  0  0  0  0  0  0  0  0  0  0
    3.3341    3.0979   -0.2897 O   0  0  0  0  0  0  0  0  0  0  0  0
    1.9866    4.8636   -0.7726 O   0  0  0  0  0  0  0  0  0  0  0  0
   -2.5908    1.6809    0.3103 N   0  0  0  0  0  0  0  0  0  0  0  0
   -4.7163    2.2456    0.6317 N   0  0  0  0  0  0  0  0  0  0  0  0
   -3.3105    0.5327    0.0998 C   0  0  0  0  0  0  0  0  0  0  0  0
   -4.6341    0.9112    0.3063 C   0  0  0  0  0  0  0  0  0  0  0  0
   -1.2219    1.8266    0.2247 C   0  0  0  0  0  0  0  0  0  0  0  0
   -2.9290   -0.7648   -0.2431 C   0  0  0  0  0  0  0  0  0  0  0  0
   -3.4744    2.6754    0.6252 C   0  0  0  0  0  0  0  0  0  0  0  0
   -0.2279    0.9039    0.4666 C   0  0  0  0  0  0  0  0  0  0  0  0
    1.0715    1.4521    0.2642 C   0  0  0  0  0  0  0  0  0  0  0  0
   -5.6506   -0.0487    0.1667 C   0  0  0  0  0  0  0  0  0  0  0  0
   -3.9536   -1.7075   -0.3778 C   0  0  0  0  0  0  0  0  0  0  0  0
   -5.2908   -1.3579   -0.1770 C   0  0  0  0  0  0  0  0  0  0  0  0
    1.0213    2.7725   -0.1249 C   0  0  0  0  0  0  0  0  0  0  0  0
    2.1463   -0.5911    0.8354 C   0  0  0  0  0  0  0  0  0  0  0  0
    3.5351   -1.1382    0.9874 C   0  0  0  0  0  0  0  0  0  0  0  0
    4.3079   -1.4556   -0.1299 C   0  0  0  0  0  0  0  0  0  0  0  0
    4.0520   -1.3270    2.2692 C   0  0  0  0  0  0  0  0  0  0  0  0
    5.5973   -1.9615    0.0350 C   0  0  0  0  0  0  0  0  0  0  0  0
    3.7761   -1.2623   -1.5119 C   0  0  0  0  0  0  0  0  0  0  0  0
    2.0935    3.6677   -0.4220 C   0  0  0  0  0  0  0  0  0  0  0  0
    5.3414   -1.8330    2.4339 C   0  0  0  0  0  0  0  0  0  0  0  0
    6.1141   -2.1503    1.3168 C   0  0  0  0  0  0  0  0  0  0  0  0
   -2.2414   -3.2726   -0.9021 C   0  0  0  0  0  0  0  0  0  0  0  0
   -6.6293   -3.0336    0.8508 C   0  0  0  0  0  0  0  0  0  0  0  0
   -1.8905   -0.9857   -0.4294 H   0  0  0  0  0  0  0  0  0  0  0  0
   -3.1859    3.6916    0.8614 H   0  0  0  0  0  0  0  0  0  0  0  0
   -0.4205   -0.1005    0.8162 H   0  0  0  0  0  0  0  0  0  0  0  0
   -6.6909    0.2205    0.3214 H   0  0  0  0  0  0  0  0  0  0  0  0
    1.5759   -1.1851    0.1125 H   0  0  0  0  0  0  0  0  0  0  0  0
    1.6241   -0.6534    1.7993 H   0  0  0  0  0  0  0  0  0  0  0  0
    3.4646   -1.0826    3.1503 H   0  0  0  0  0  0  0  0  0  0  0  0
    6.2166   -2.2152   -0.8209 H   0  0  0  0  0  0  0  0  0  0  0  0
    5.7441   -1.9794    3.4318 H   0  0  0  0  0  0  0  0  0  0  0  0
    7.1180   -2.5440    1.4453 H   0  0  0  0  0  0  0  0  0  0  0  0
   -2.1628   -4.3362   -1.1515 H   0  0  0  0  0  0  0  0  0  0  0  0
   -1.6661   -3.1222    0.0181 H   0  0  0  0  0  0  0  0  0  0  0  0
   -1.8269   -2.7191   -1.7515 H   0  0  0  0  0  0  0  0  0  0  0  0
   -7.4142   -3.7449    0.5795 H   0  0  0  0  0  0  0  0  0  0  0  0
   -7.0169   -2.3640    1.6252 H   0  0  0  0  0  0  0  0  0  0  0  0
   -5.7689   -3.5917    1.2332 H   0  0  0  0  0  0  0  0  0  0  0  0
    4.0494    3.7356   -0.4997 H   0  0  0  0  0  0  0  0  0  0  0  0
  1 14  1  0  0  0  0
  1 22  1  0  0  0  0
  2 28  1  0  0  0  0
  3 28  1  0  0  0  0
  4 28  1  0  0  0  0
  5 18  1  0  0  0  0
  5 23  1  0  0  0  0
  6 20  1  0  0  0  0
  6 32  1  0  0  0  0
  7 21  1  0  0  0  0
  7 33  1  0  0  0  0
  8 29  1  0  0  0  0
  8 50  1  0  0  0  0
  9 29  2  0  0  0  0
 10 12  1  0  0  0  0
 10 14  1  0  0  0  0
 10 16  1  0  0  0  0
 11 13  1  0  0  0  0
 11 16  2  0  0  0  0
 12 13  1  0  0  0  0
 12 15  2  0  0  0  0
 13 19  2  0  0  0  0
 14 17  2  0  0  0  0
 15 20  1  0  0  0  0
 15 34  1  0  0  0  0
 16 35  1  0  0  0  0
 17 18  1  0  0  0  0
 17 36  1  0  0  0  0
 18 22  2  0  0  0  0
 19 21  1  0  0  0  0
 19 37  1  0  0  0  0
 20 21  2  0  0  0  0
 22 29  1  0  0  0  0
 23 24  1  0  0  0  0
 23 38  1  0  0  0  0
 23 39  1  0  0  0  0
 24 25  1  0  0  0  0
 24 26  2  0  0  0  0
 25 27  2  0  0  0  0
 25 28  1  0  0  0  0
 26 30  1  0  0  0  0
 26 40  1  0  0  0  0
 27 31  1  0  0  0  0
 27 41  1  0  0  0  0
 30 31  2  0  0  0  0
 30 42  1  0  0  0  0
 31 43  1  0  0  0  0
 32 44  1  0  0  0  0
 32 45  1  0  0  0  0
 32 46  1  0  0  0  0
 33 47  1  0  0  0  0
 33 48  1  0  0  0  0
 33 49  1  0  0  0  0
M  END
> <PUBCHEM_COMPOUND_CID>
25263111

> <PUBCHEM_CONFORMER_RMSD>
1

> <PUBCHEM_CONFORMER_DIVERSEORDER>
1
25
156
104
88
139
150
93
116
80
123
117
95
99
53
10
87
151
145
149
138
109
122
24
110
84
141
75
136
146
85
91
86
82
124
4
157
98
97
52
65
89
38
125
7
153
71
58
72
81
69
46
60
121
70
118
49
137
108
115
64
34
152
154
26
27
44
40
43
13
119
111
127
16
48
133
62
148
55
107
140
50
74
128
92
83
102
36
159
160
20
14
120
94
131
112
45
8
5
51
113
100
158
114
155
90
57
32
76
101
35
23
103
37
59
126
11
31
130
61
134
147
15
105
19
47
106
18
22
143
142
67
30
12
17
79
2
135
132
54
39
73
42
77
144
6
63
41
28
129
96
66
29
68
9
21
33
56
78
3

> <PUBCHEM_MMFF94_PARTIAL_CHARGES>
42
1 -0.08
10 0.38
11 -0.57
12 -0.15
13 0.23
14 -0.04
15 -0.15
16 0.04
17 -0.15
18 0.06
19 -0.15
2 -0.34
20 0.08
21 0.08
22 -0.05
23 0.42
24 -0.14
25 -0.14
26 -0.15
27 -0.15
28 1.16
29 0.81
3 -0.34
30 -0.15
31 -0.15
32 0.28
33 0.28
34 0.15
35 0.15
36 0.15
37 0.15
4 -0.34
40 0.15
41 0.15
42 0.15
43 0.15
5 -0.34
50 0.5
6 -0.36
7 -0.36
8 -0.65
9 -0.57

> <PUBCHEM_EFFECTIVE_ROTOR_COUNT>
8

> <PUBCHEM_PHARMACOPHORE_FEATURES>
11
1 5 acceptor
1 6 acceptor
1 7 acceptor
1 8 acceptor
1 9 acceptor
3 10 11 16 cation
3 8 9 29 anion
5 1 14 17 18 22 rings
5 10 11 12 13 16 rings
6 12 13 15 19 20 21 rings
6 24 25 26 27 30 31 rings

> <PUBCHEM_HEAVY_ATOM_COUNT>
33

> <PUBCHEM_ATOM_DEF_STEREO_COUNT>
0

> <PUBCHEM_ATOM_UDEF_STEREO_COUNT>
0

> <PUBCHEM_BOND_DEF_STEREO_COUNT>
0

> <PUBCHEM_BOND_UDEF_STEREO_COUNT>
0

> <PUBCHEM_ISOTOPIC_ATOM_COUNT>
0

> <PUBCHEM_COMPONENT_COUNT>
1

> <PUBCHEM_CACTVS_TAUTO_COUNT>
1

> <PUBCHEM_CONFORMER_ID>
01817C0700000001

> <PUBCHEM_MMFF94_ENERGY>
100.7867

> <PUBCHEM_FEATURE_SELFOVERLAP>
56.001

> <PUBCHEM_SHAPE_FINGERPRINT>
10050765 1 18408602591686161433
10169797 241 18263943187712931610
10622 236 17984120828993567399
10939801 23 18341043129686725730
11135926 11 18050275174755098293
11963148 33 17906449184223623607
12107183 9 18338799997249250689
12128747 34 16341454583931722680
12166972 35 17603581915813925870
12422481 6 17703211959031513454
12788726 201 17899994741894216584
13009979 54 18272090491718574625
13402501 40 17845375457579935718
13540713 5 18339091462146104113
14117953 113 18267579109937355261
14394314 77 18262512572882516000
14910302 57 17983297028200458638
15001296 14 18263641934770440555
16628084 112 18124301964955994207
17492 89 18336825407372035665
17686467 74 18338504289024526456
1813 80 18338518526119042344
19301679 30 18341902948164781411
19319366 153 17760928841709338373
19841028 212 18263644142980223931
21033648 29 17346025676219829371
21223535 225 14491027152006852270
21781055 127 17345213129259882745
21796203 349 18046942378732800600
23559900 14 18273218599127765477
249057 3 18264482902563694105
3383291 50 18272365361721417979
3882209 13 17338961520297069135
4280585 95 18336539417899646880
463206 1 18114181882927245970
50009960 94 18116691079872744987
5104073 3 18272938249954629169
563151 74 15410598277886682614
6058803 2 18339374066868213425
613672 6 18270952432421252101
6700243 42 17983315737536995188
6823239 73 18131359587732090636
7970288 3 18263357001881125570

> <PUBCHEM_SHAPE_MULTIPOLES>
621.84
15.48
5.15
1.54
4.63
4.09
0.11
-15.25
-2.96
0.83
0.75
-3
-1.12
-1.69

> <PUBCHEM_SHAPE_SELFOVERLAP>
1362.71

> <PUBCHEM_SHAPE_VOLUME>
341.8

> <PUBCHEM_COORDINATE_TYPE>
2
5
10

$$$$
