136027065
  -OEChem-10052115193D

 51 54  0     0  0  0  0  0  0999 V2000
    3.8291    1.8445   -1.5184 O   0  0  0  0  0  0  0  0  0  0  0  0
    4.2556   -0.1113   -0.2703 N   0  0  0  0  0  0  0  0  0  0  0  0
   -1.3880   -0.1869   -1.2574 N   0  0  0  0  0  0  0  0  0  0  0  0
   -2.0024    0.9176    0.5708 N   0  0  0  0  0  0  0  0  0  0  0  0
   -5.5077   -1.0731   -1.5653 N   0  0  0  0  0  0  0  0  0  0  0  0
   -4.1778   -0.9482   -1.7100 N   0  0  0  0  0  0  0  0  0  0  0  0
    2.2194   -4.2065    1.4309 N   0  0  0  0  0  0  0  0  0  0  0  0
    5.6529   -0.2157   -0.5878 C   0  0  0  0  0  0  0  0  0  0  0  0
    6.5334    0.5294    0.4098 C   0  0  0  0  0  0  0  0  0  0  0  0
    3.7042   -1.1483    0.6088 C   0  0  0  0  0  0  0  0  0  0  0  0
    3.4541    0.9357   -0.7784 C   0  0  0  0  0  0  0  0  0  0  0  0
    2.0368    0.9608   -0.3830 C   0  0  0  0  0  0  0  0  0  0  0  0
    8.0209    0.4437    0.0598 C   0  0  0  0  0  0  0  0  0  0  0  0
   -0.2322    0.3441   -0.7448 C   0  0  0  0  0  0  0  0  0  0  0  0
   -0.6421    1.0287    0.3959 C   0  0  0  0  0  0  0  0  0  0  0  0
    1.0960    0.2860   -1.1680 C   0  0  0  0  0  0  0  0  0  0  0  0
   -2.4171    0.1833   -0.4371 C   0  0  0  0  0  0  0  0  0  0  0  0
   -3.8231   -0.1994   -0.6635 C   0  0  0  0  0  0  0  0  0  0  0  0
    1.6562    1.6562    0.7670 C   0  0  0  0  0  0  0  0  0  0  0  0
   -4.9188    0.1572    0.1518 C   0  0  0  0  0  0  0  0  0  0  0  0
    0.3165    1.7010    1.1727 C   0  0  0  0  0  0  0  0  0  0  0  0
    3.1710   -2.3465   -0.1674 C   0  0  0  0  0  0  0  0  0  0  0  0
    8.8680    1.2447    1.0364 C   0  0  0  0  0  0  0  0  0  0  0  0
   -6.0152   -0.4325   -0.4673 C   0  0  0  0  0  0  0  0  0  0  0  0
   -5.1103    0.9010    1.3281 C   0  0  0  0  0  0  0  0  0  0  0  0
   -7.3176   -0.3233    0.0248 C   0  0  0  0  0  0  0  0  0  0  0  0
   -6.4087    1.0228    1.8386 C   0  0  0  0  0  0  0  0  0  0  0  0
   -7.4924    0.4206    1.1963 C   0  0  0  0  0  0  0  0  0  0  0  0
    2.6394   -3.3856    0.7267 C   0  0  0  0  0  0  0  0  0  0  0  0
    5.9370   -1.2726   -0.6458 H   0  0  0  0  0  0  0  0  0  0  0  0
    5.8117    0.2117   -1.5852 H   0  0  0  0  0  0  0  0  0  0  0  0
    6.3734    0.1270    1.4178 H   0  0  0  0  0  0  0  0  0  0  0  0
    6.2280    1.5830    0.4471 H   0  0  0  0  0  0  0  0  0  0  0  0
    2.9164   -0.7337    1.2447 H   0  0  0  0  0  0  0  0  0  0  0  0
    4.4952   -1.4669    1.3003 H   0  0  0  0  0  0  0  0  0  0  0  0
    8.3446   -0.6034    0.0715 H   0  0  0  0  0  0  0  0  0  0  0  0
    8.1864    0.8245   -0.9546 H   0  0  0  0  0  0  0  0  0  0  0  0
    1.3765   -0.2471   -2.0700 H   0  0  0  0  0  0  0  0  0  0  0  0
   -1.4623   -0.7513   -2.0936 H   0  0  0  0  0  0  0  0  0  0  0  0
    2.4026    2.1746    1.3649 H   0  0  0  0  0  0  0  0  0  0  0  0
    0.0307    2.2439    2.0679 H   0  0  0  0  0  0  0  0  0  0  0  0
    2.3930   -2.0501   -0.8741 H   0  0  0  0  0  0  0  0  0  0  0  0
    3.9766   -2.7781   -0.7737 H   0  0  0  0  0  0  0  0  0  0  0  0
    8.7468    0.8714    2.0583 H   0  0  0  0  0  0  0  0  0  0  0  0
    9.9268    1.1687    0.7701 H   0  0  0  0  0  0  0  0  0  0  0  0
    8.5891    2.3032    1.0214 H   0  0  0  0  0  0  0  0  0  0  0  0
   -6.0149   -1.6126   -2.2557 H   0  0  0  0  0  0  0  0  0  0  0  0
   -4.2840    1.3783    1.8452 H   0  0  0  0  0  0  0  0  0  0  0  0
   -8.1578   -0.7920   -0.4752 H   0  0  0  0  0  0  0  0  0  0  0  0
   -6.5742    1.5949    2.7479 H   0  0  0  0  0  0  0  0  0  0  0  0
   -8.4901    0.5310    1.6137 H   0  0  0  0  0  0  0  0  0  0  0  0
  1 11  2  0  0  0  0
  2  8  1  0  0  0  0
  2 10  1  0  0  0  0
  2 11  1  0  0  0  0
  3 14  1  0  0  0  0
  3 17  1  0  0  0  0
  3 39  1  0  0  0  0
  4 15  1  0  0  0  0
  4 17  2  0  0  0  0
  5  6  1  0  0  0  0
  5 24  1  0  0  0  0
  5 47  1  0  0  0  0
  6 18  2  0  0  0  0
  7 29  3  0  0  0  0
  8  9  1  0  0  0  0
  8 30  1  0  0  0  0
  8 31  1  0  0  0  0
  9 13  1  0  0  0  0
  9 32  1  0  0  0  0
  9 33  1  0  0  0  0
 10 22  1  0  0  0  0
 10 34  1  0  0  0  0
 10 35  1  0  0  0  0
 11 12  1  0  0  0  0
 12 16  2  0  0  0  0
 12 19  1  0  0  0  0
 13 23  1  0  0  0  0
 13 36  1  0  0  0  0
 13 37  1  0  0  0  0
 14 15  2  0  0  0  0
 14 16  1  0  0  0  0
 15 21  1  0  0  0  0
 16 38  1  0  0  0  0
 17 18  1  0  0  0  0
 18 20  1  0  0  0  0
 19 21  2  0  0  0  0
 19 40  1  0  0  0  0
 20 24  1  0  0  0  0
 20 25  2  0  0  0  0
 21 41  1  0  0  0  0
 22 29  1  0  0  0  0
 22 42  1  0  0  0  0
 22 43  1  0  0  0  0
 23 44  1  0  0  0  0
 23 45  1  0  0  0  0
 23 46  1  0  0  0  0
 24 26  2  0  0  0  0
 25 27  1  0  0  0  0
 25 48  1  0  0  0  0
 26 28  1  0  0  0  0
 26 49  1  0  0  0  0
 27 28  2  0  0  0  0
 27 50  1  0  0  0  0
 28 51  1  0  0  0  0
M  END
> <PUBCHEM_COMPOUND_CID>
136027065

> <PUBCHEM_CONFORMER_RMSD>
1.2

> <PUBCHEM_CONFORMER_DIVERSEORDER>
1
33
59
20
74
38
87
75
82
72
45
48
83
5
52
31
49
27
25
60
46
2
71
51
67
85
92
21
81
61
36
90
39
57
54
63
4
104
105
3
65
103
13
73
7
95
96
78
23
28
41
68
15
50
62
53
86
11
98
64
8
97
84
17
32
88
26
43
12
93
100
9
14
58
16
102
29
24
10
19
89
42
56
18
34
44
30
101
47
35
77
40
66
6
76
99
22
79
37
94
69
80
91
55
70

> <PUBCHEM_MMFF94_PARTIAL_CHARGES>
34
1 -0.57
10 0.3
11 0.54
12 0.09
14 -0.15
15 0.23
16 -0.15
17 0.19
18 0.29
19 -0.15
2 -0.66
21 -0.15
22 0.2
24 -0.15
25 -0.15
26 -0.15
27 -0.15
28 -0.15
29 0.36
3 0.03
38 0.15
39 0.27
4 -0.57
40 0.15
41 0.15
47 0.27
48 0.15
49 0.15
5 0.3
50 0.15
51 0.15
6 -0.71
7 -0.56
8 0.3

> <PUBCHEM_EFFECTIVE_ROTOR_COUNT>
8

> <PUBCHEM_PHARMACOPHORE_FEATURES>
11
1 1 acceptor
1 23 hydrophobe
1 3 donor
1 5 donor
1 6 acceptor
1 7 acceptor
3 3 4 17 cation
5 3 4 14 15 17 rings
5 5 6 18 20 24 rings
6 12 14 15 16 19 21 rings
6 20 24 25 26 27 28 rings

> <PUBCHEM_HEAVY_ATOM_COUNT>
29

> <PUBCHEM_ATOM_DEF_STEREO_COUNT>
0

> <PUBCHEM_ATOM_UDEF_STEREO_COUNT>
0

> <PUBCHEM_BOND_DEF_STEREO_COUNT>
0

> <PUBCHEM_BOND_UDEF_STEREO_COUNT>
0

> <PUBCHEM_ISOTOPIC_ATOM_COUNT>
0

> <PUBCHEM_COMPONENT_COUNT>
1

> <PUBCHEM_CACTVS_TAUTO_COUNT>
-1

> <PUBCHEM_CONFORMER_ID>
081B9BB900000001

> <PUBCHEM_MMFF94_ENERGY>
50.52

> <PUBCHEM_FEATURE_SELFOVERLAP>
56.019

> <PUBCHEM_SHAPE_FINGERPRINT>
10 15 16200152096875976356
10299344 5 18202283606566798108
106641 1 17346877879746963544
10674148 151 17418373598143058290
10763959 59 11887953224760340667
11045977 3 12895061946755755711
11135926 11 18334287669752423278
11315181 36 17775566455805971337
12236239 1 18131634473996964532
12596602 18 17489585679590141010
12788726 201 17845947216880072313
12838862 33 18337374016324088878
13533116 47 18409733924293428411
14028597 1 18201162057266563826
14251764 18 18060702805593790157
14394314 77 18202567258902518097
14849402 71 18129941303553355048
15119646 104 18410012104887830602
15183329 4 18060419106435729077
15301273 46 15698008431370171220
15352257 5 17895203225050201651
15461852 350 14261343674823673805
15537594 2 18342455928586550583
15799311 1 18261969504723279227
18681886 176 16773790437221986776
19319366 153 18408880742131214878
20771845 171 17023195886600854030
21315763 178 18342455924159356983
21421861 104 18198632042514990383
21521721 280 18336827589400220128
21623969 137 17894636937342578147
22224240 67 18409163334152168186
23516275 137 17702126727622377702
23522609 53 18127439880441067761
23559900 14 18261671596563338673
3178227 256 18040716983347343100
345986 75 18127402363420910395
34797466 226 16008760117088609143
4073 2 18269555116778172259
4340502 62 18334859429010367966
46194498 28 17240205426067239838
5104073 3 17417249961509732499
5758199 1 18413107277849820514

> <PUBCHEM_SHAPE_MULTIPOLES>
561.05
22.43
2.41
1.45
3.47
3.24
-0.02
-4.2
-5.07
3.33
-1.23
-1.1
0.08
-2

> <PUBCHEM_SHAPE_SELFOVERLAP>
1220.151

> <PUBCHEM_SHAPE_VOLUME>
307.2

> <PUBCHEM_COORDINATE_TYPE>
2
5
10

$$$$
