24905218
  -OEChem-10052115163D

 38 41  0     0  0  0  0  0  0999 V2000
   -2.6329   -1.0374    0.0449 N   0  0  0  0  0  0  0  0  0  0  0  0
   -1.3489   -1.3992   -0.1348 N   0  0  0  0  0  0  0  0  0  0  0  0
   -3.9760    0.9626    0.2861 N   0  0  0  0  0  0  0  0  0  0  0  0
   -2.6136    2.9829    0.1742 N   0  0  0  0  0  0  0  0  0  0  0  0
   -0.2479    2.9277   -0.1380 N   0  0  0  0  0  0  0  0  0  0  0  0
    3.7609   -0.2626    1.6623 N   0  0  0  0  0  0  0  0  0  0  0  0
    4.8362   -0.1662   -0.8979 N   0  0  0  0  0  0  0  0  0  0  0  0
   -3.6520   -2.0552    0.1447 C   0  0  0  0  0  0  0  0  0  0  0  0
   -2.8146    0.3119    0.1130 C   0  0  0  0  0  0  0  0  0  0  0  0
   -1.5586    0.8742   -0.0327 C   0  0  0  0  0  0  0  0  0  0  0  0
   -0.6997   -0.2307   -0.1813 C   0  0  0  0  0  0  0  0  0  0  0  0
    0.7238   -0.2122   -0.3665 C   0  0  0  0  0  0  0  0  0  0  0  0
   -3.4257   -2.9615    1.3574 C   0  0  0  0  0  0  0  0  0  0  0  0
   -3.7519   -2.8797   -1.1410 C   0  0  0  0  0  0  0  0  0  0  0  0
   -1.4793    2.2626    0.0023 C   0  0  0  0  0  0  0  0  0  0  0  0
    1.5755   -0.2449    0.7361 C   0  0  0  0  0  0  0  0  0  0  0  0
    1.2605   -0.1641   -1.6445 C   0  0  0  0  0  0  0  0  0  0  0  0
    2.9599   -0.2303    0.5829 C   0  0  0  0  0  0  0  0  0  0  0  0
    3.5045   -0.1815   -0.7136 C   0  0  0  0  0  0  0  0  0  0  0  0
    2.6445   -0.1491   -1.8088 C   0  0  0  0  0  0  0  0  0  0  0  0
   -3.7749    2.2981    0.3036 C   0  0  0  0  0  0  0  0  0  0  0  0
    5.0902   -0.2465    1.4566 C   0  0  0  0  0  0  0  0  0  0  0  0
    5.6202   -0.1991    0.1948 C   0  0  0  0  0  0  0  0  0  0  0  0
   -4.6117   -1.5439    0.2868 H   0  0  0  0  0  0  0  0  0  0  0  0
   -2.4973   -3.5361    1.2662 H   0  0  0  0  0  0  0  0  0  0  0  0
   -4.2514   -3.6723    1.4681 H   0  0  0  0  0  0  0  0  0  0  0  0
   -3.3624   -2.3714    2.2784 H   0  0  0  0  0  0  0  0  0  0  0  0
   -2.8361   -3.4513   -1.3282 H   0  0  0  0  0  0  0  0  0  0  0  0
   -3.9221   -2.2311   -2.0075 H   0  0  0  0  0  0  0  0  0  0  0  0
   -4.5843   -3.5888   -1.0817 H   0  0  0  0  0  0  0  0  0  0  0  0
    1.1565   -0.2826    1.7414 H   0  0  0  0  0  0  0  0  0  0  0  0
    0.6212   -0.1377   -2.5233 H   0  0  0  0  0  0  0  0  0  0  0  0
    3.0521   -0.1112   -2.8171 H   0  0  0  0  0  0  0  0  0  0  0  0
   -4.6634    2.9054    0.4397 H   0  0  0  0  0  0  0  0  0  0  0  0
    0.6136    2.4179   -0.2669 H   0  0  0  0  0  0  0  0  0  0  0  0
   -0.2350    3.9383   -0.1064 H   0  0  0  0  0  0  0  0  0  0  0  0
    5.7118   -0.2731    2.3425 H   0  0  0  0  0  0  0  0  0  0  0  0
    6.6882   -0.1857    0.0180 H   0  0  0  0  0  0  0  0  0  0  0  0
  1  2  1  0  0  0  0
  1  8  1  0  0  0  0
  1  9  1  0  0  0  0
  2 11  2  0  0  0  0
  3  9  2  0  0  0  0
  3 21  1  0  0  0  0
  4 15  1  0  0  0  0
  4 21  2  0  0  0  0
  5 15  1  0  0  0  0
  5 35  1  0  0  0  0
  5 36  1  0  0  0  0
  6 18  2  0  0  0  0
  6 22  1  0  0  0  0
  7 19  2  0  0  0  0
  7 23  1  0  0  0  0
  8 13  1  0  0  0  0
  8 14  1  0  0  0  0
  8 24  1  0  0  0  0
  9 10  1  0  0  0  0
 10 11  1  0  0  0  0
 10 15  2  0  0  0  0
 11 12  1  0  0  0  0
 12 16  2  0  0  0  0
 12 17  1  0  0  0  0
 13 25  1  0  0  0  0
 13 26  1  0  0  0  0
 13 27  1  0  0  0  0
 14 28  1  0  0  0  0
 14 29  1  0  0  0  0
 14 30  1  0  0  0  0
 16 18  1  0  0  0  0
 16 31  1  0  0  0  0
 17 20  2  0  0  0  0
 17 32  1  0  0  0  0
 18 19  1  0  0  0  0
 19 20  1  0  0  0  0
 20 33  1  0  0  0  0
 21 34  1  0  0  0  0
 22 23  2  0  0  0  0
 22 37  1  0  0  0  0
 23 38  1  0  0  0  0
M  END
> <PUBCHEM_COMPOUND_CID>
24905218

> <PUBCHEM_CONFORMER_RMSD>
0.6

> <PUBCHEM_CONFORMER_DIVERSEORDER>
2
3
6
4
5
1

> <PUBCHEM_MMFF94_PARTIAL_CHARGES>
28
1 0.31
11 0.23
12 0.05
15 0.41
16 -0.15
17 -0.15
18 0.31
19 0.31
2 -0.71
20 -0.15
21 0.47
22 0.16
23 0.16
3 -0.57
31 0.15
32 0.15
33 0.15
34 0.15
35 0.4
36 0.4
37 0.15
38 0.15
4 -0.62
5 -0.9
6 -0.62
7 -0.62
8 0.26
9 0.11

> <PUBCHEM_EFFECTIVE_ROTOR_COUNT>
2

> <PUBCHEM_PHARMACOPHORE_FEATURES>
12
1 2 acceptor
1 5 cation
1 5 donor
1 6 acceptor
1 7 acceptor
3 1 3 9 cation
3 3 4 21 cation
3 8 13 14 hydrophobe
5 1 2 9 10 11 rings
6 12 16 17 18 19 20 rings
6 3 4 9 10 15 21 rings
6 6 7 18 19 22 23 rings

> <PUBCHEM_HEAVY_ATOM_COUNT>
23

> <PUBCHEM_ATOM_DEF_STEREO_COUNT>
0

> <PUBCHEM_ATOM_UDEF_STEREO_COUNT>
0

> <PUBCHEM_BOND_DEF_STEREO_COUNT>
0

> <PUBCHEM_BOND_UDEF_STEREO_COUNT>
0

> <PUBCHEM_ISOTOPIC_ATOM_COUNT>
0

> <PUBCHEM_COMPONENT_COUNT>
1

> <PUBCHEM_CACTVS_TAUTO_COUNT>
5

> <PUBCHEM_CONFORMER_ID>
017C060200000002

> <PUBCHEM_MMFF94_ENERGY>
61.8263

> <PUBCHEM_FEATURE_SELFOVERLAP>
61.216

> <PUBCHEM_SHAPE_FINGERPRINT>
10319926 262 18270949156273990642
10411042 1 18195246844235361047
11265709 11 18338795749394400735
11315181 36 17968094257327952194
11370993 144 16988019205600677411
11545043 162 18273498957898041946
12035758 1 18270698510624940449
12107183 9 17685766931361714594
12236239 1 17676492726405603508
12363563 72 18266744777932520031
12403259 415 17561083622910884118
12553582 1 18194977450743373199
12616971 3 17167867443927155246
12788726 201 18043552691669118298
13140716 1 18339370781138220865
13583140 156 17917419905181672102
13782708 43 17775011180933150958
13965767 371 17106228589835575660
14081887 123 18343018861169782641
14178342 30 18335423426355859542
14420673 8 17977944588881605082
14739800 52 18264768943296375172
14844126 61 18409164441747887483
15042514 8 18336555958298400947
15099037 37 18343301491603615287
15131766 46 16155713213105244621
16992727 255 18117253919274894245
17349148 13 17676490570569683730
1813 80 18127985311032374047
18222031 100 18199184181882850847
18927931 339 18341336659924681295
200 152 17095235947300021046
20511986 3 17603856776377574332
21033648 29 17417515961386816904
21065201 7 18341056224894272622
21304303 282 18046880733668386165
21728266 224 18335129904027467162
21792961 116 17632306632279385502
22182313 1 17774454805782933542
23366157 5 17826522350921329037
23402539 116 18411414029320670470
23419403 2 17903323203782479877
23557571 272 18272661125046149956
23559900 14 18199761237020231270
312423 11 18114754840217308796
474 4 17097231625999195484
5104073 3 18410856598748521008
5265222 85 18200042854322070390
573450 72 18260545611041694458
57527293 21 17916870256298867910
602551 16 18412545431476446202
7097593 13 17898279516354672466
7471813 234 18192708062542044055
7615 1 17749679566092916428
77492 1 17676497133105261980
7970288 3 18193277626978515043

> <PUBCHEM_SHAPE_MULTIPOLES>
438.46
10.39
2.9
1.33
9.82
0.66
-0.13
-2.98
1.96
-6.07
0.27
1.19
-0.53
-0.22

> <PUBCHEM_SHAPE_SELFOVERLAP>
983.652

> <PUBCHEM_SHAPE_VOLUME>
228.3

> <PUBCHEM_COORDINATE_TYPE>
2
5
10

$$$$
