49830688
  -OEChem-10052120443D

 41 43  0     0  0  0  0  0  0999 V2000
    6.9490    0.5295   -0.1001 F   0  0  0  0  0  0  0  0  0  0  0  0
    5.4255    1.5925   -1.2300 F   0  0  0  0  0  0  0  0  0  0  0  0
    5.4642    1.7356    0.9337 F   0  0  0  0  0  0  0  0  0  0  0  0
    1.0043    1.3138   -0.0485 O   0  0  0  0  0  0  0  0  0  0  0  0
   -0.8905   -0.0570    0.0738 N   0  0  0  0  0  0  0  0  0  0  0  0
   -3.9806    2.7574   -0.0605 N   0  0  0  0  0  0  0  0  0  0  0  0
    1.2080   -1.0111    0.1014 N   0  0  0  0  0  0  0  0  0  0  0  0
    3.4073   -0.1122    0.0050 N   0  0  0  0  0  0  0  0  0  0  0  0
   -3.2868    0.4539    0.0801 C   0  0  0  0  0  0  0  0  0  0  0  0
   -4.9801   -1.2792    0.2230 C   0  0  0  0  0  0  0  0  0  0  0  0
   -3.6410   -0.9027    0.1758 C   0  0  0  0  0  0  0  0  0  0  0  0
   -4.2853    1.4491    0.0309 C   0  0  0  0  0  0  0  0  0  0  0  0
   -1.9467    0.8608    0.0311 C   0  0  0  0  0  0  0  0  0  0  0  0
   -5.3524   -2.7193    0.3242 C   0  0  0  0  0  0  0  0  0  0  0  0
   -5.9688   -0.3043    0.1748 C   0  0  0  0  0  0  0  0  0  0  0  0
   -5.6165    1.0442    0.0797 C   0  0  0  0  0  0  0  0  0  0  0  0
   -1.6296    2.2082   -0.0632 C   0  0  0  0  0  0  0  0  0  0  0  0
   -5.5210   -3.3738   -1.0448 C   0  0  0  0  0  0  0  0  0  0  0  0
   -2.6750    3.1083   -0.1054 C   0  0  0  0  0  0  0  0  0  0  0  0
    0.4988    0.1989    0.0336 C   0  0  0  0  0  0  0  0  0  0  0  0
    2.6100   -1.2006    0.0903 C   0  0  0  0  0  0  0  0  0  0  0  0
    4.7393   -0.3428   -0.0027 C   0  0  0  0  0  0  0  0  0  0  0  0
    3.0795   -2.5020    0.1677 C   0  0  0  0  0  0  0  0  0  0  0  0
    5.3086   -1.6038    0.0706 C   0  0  0  0  0  0  0  0  0  0  0  0
    4.4559   -2.6988    0.1572 C   0  0  0  0  0  0  0  0  0  0  0  0
    5.6240    0.8553   -0.0979 C   0  0  0  0  0  0  0  0  0  0  0  0
   -2.9011   -1.6959    0.2135 H   0  0  0  0  0  0  0  0  0  0  0  0
   -6.2837   -2.8256    0.8946 H   0  0  0  0  0  0  0  0  0  0  0  0
   -4.5920   -3.2646    0.8972 H   0  0  0  0  0  0  0  0  0  0  0  0
   -7.0205   -0.5764    0.2084 H   0  0  0  0  0  0  0  0  0  0  0  0
   -6.4098    1.7886    0.0432 H   0  0  0  0  0  0  0  0  0  0  0  0
   -0.6419    2.6353   -0.1078 H   0  0  0  0  0  0  0  0  0  0  0  0
   -1.1310   -1.0384    0.1425 H   0  0  0  0  0  0  0  0  0  0  0  0
   -6.3075   -2.8802   -1.6256 H   0  0  0  0  0  0  0  0  0  0  0  0
   -5.7940   -4.4274   -0.9287 H   0  0  0  0  0  0  0  0  0  0  0  0
   -4.5928   -3.3243   -1.6242 H   0  0  0  0  0  0  0  0  0  0  0  0
   -2.4895    4.1751   -0.1789 H   0  0  0  0  0  0  0  0  0  0  0  0
    0.6527   -1.8605    0.1667 H   0  0  0  0  0  0  0  0  0  0  0  0
    2.4097   -3.3530    0.2350 H   0  0  0  0  0  0  0  0  0  0  0  0
    6.3821   -1.7567    0.0621 H   0  0  0  0  0  0  0  0  0  0  0  0
    4.8632   -3.7037    0.2162 H   0  0  0  0  0  0  0  0  0  0  0  0
  1 26  1  0  0  0  0
  2 26  1  0  0  0  0
  3 26  1  0  0  0  0
  4 20  2  0  0  0  0
  5 13  1  0  0  0  0
  5 20  1  0  0  0  0
  5 33  1  0  0  0  0
  6 12  2  0  0  0  0
  6 19  1  0  0  0  0
  7 20  1  0  0  0  0
  7 21  1  0  0  0  0
  7 38  1  0  0  0  0
  8 21  1  0  0  0  0
  8 22  2  0  0  0  0
  9 11  1  0  0  0  0
  9 12  1  0  0  0  0
  9 13  2  0  0  0  0
 10 11  2  0  0  0  0
 10 14  1  0  0  0  0
 10 15  1  0  0  0  0
 11 27  1  0  0  0  0
 12 16  1  0  0  0  0
 13 17  1  0  0  0  0
 14 18  1  0  0  0  0
 14 28  1  0  0  0  0
 14 29  1  0  0  0  0
 15 16  2  0  0  0  0
 15 30  1  0  0  0  0
 16 31  1  0  0  0  0
 17 19  2  0  0  0  0
 17 32  1  0  0  0  0
 18 34  1  0  0  0  0
 18 35  1  0  0  0  0
 18 36  1  0  0  0  0
 19 37  1  0  0  0  0
 21 23  2  0  0  0  0
 22 24  1  0  0  0  0
 22 26  1  0  0  0  0
 23 25  1  0  0  0  0
 23 39  1  0  0  0  0
 24 25  2  0  0  0  0
 24 40  1  0  0  0  0
 25 41  1  0  0  0  0
M  END
> <PUBCHEM_COMPOUND_CID>
49830688

> <PUBCHEM_CONFORMER_RMSD>
0.8

> <PUBCHEM_CONFORMER_DIVERSEORDER>
1
20
27
21
28
10
32
24
33
14
4
25
12
31
34
15
3
22
16
9
2
38
8
37
17
18
23
11
39
19
13
5
30
26
35
7
29
36
6

> <PUBCHEM_MMFF94_PARTIAL_CHARGES>
34
1 -0.34
10 -0.14
11 -0.15
12 0.31
13 0.12
14 0.14
15 -0.15
16 -0.15
17 -0.15
19 0.16
2 -0.34
20 0.69
21 0.43
22 0.17
23 -0.15
24 -0.15
25 -0.15
26 1.16
27 0.15
3 -0.34
30 0.15
31 0.15
32 0.15
33 0.37
37 0.15
38 0.37
39 0.15
4 -0.57
40 0.15
41 0.15
5 -0.55
6 -0.62
7 -0.55
8 -0.62

> <PUBCHEM_EFFECTIVE_ROTOR_COUNT>
6

> <PUBCHEM_PHARMACOPHORE_FEATURES>
9
1 18 hydrophobe
1 4 acceptor
1 5 donor
1 6 acceptor
1 7 donor
1 8 acceptor
6 6 9 12 13 17 19 rings
6 8 21 22 23 24 25 rings
6 9 10 11 12 15 16 rings

> <PUBCHEM_HEAVY_ATOM_COUNT>
26

> <PUBCHEM_ATOM_DEF_STEREO_COUNT>
0

> <PUBCHEM_ATOM_UDEF_STEREO_COUNT>
0

> <PUBCHEM_BOND_DEF_STEREO_COUNT>
0

> <PUBCHEM_BOND_UDEF_STEREO_COUNT>
0

> <PUBCHEM_ISOTOPIC_ATOM_COUNT>
0

> <PUBCHEM_COMPONENT_COUNT>
1

> <PUBCHEM_CACTVS_TAUTO_COUNT>
11

> <PUBCHEM_CONFORMER_ID>
02F85B2000000001

> <PUBCHEM_MMFF94_ENERGY>
71.54

> <PUBCHEM_FEATURE_SELFOVERLAP>
45.756

> <PUBCHEM_SHAPE_FINGERPRINT>
10411042 1 18194402419737706771
10595046 47 18408042901042458490
10835480 77 18336539417957948653
11476731 50 17486757851985826335
11524674 6 16917344819340575271
12107183 9 17471289548416239442
13167823 11 18336826373154458890
13631057 29 18341330076293418363
14168556 18 18196367241961576000
14251732 16 18411699906707223138
14341114 176 18337958891637332209
14429380 30 18194401319830966399
14461889 52 18411412947616796162
14528608 73 18408610240900641476
14904525 67 16128655240993810824
15196674 1 18337391539405515202
15250474 111 18189886526970164307
15927050 60 17622163894541978012
16087824 20 18337389337512300549
16110190 28 18341899567624358707
17844677 252 18338524015012951928
17857418 61 18408604764453471967
18608769 82 18341890835729057896
20511986 3 17895747414237937071
21315763 129 18335700478133076432
23559900 14 18411128161252247121
239999 70 18270685238976282454
3004659 81 18262801753431501338
3246875 12 18340200920959718600
329604 57 18343584010505500328
335352 9 18410851076427711269
34797466 226 17917999360588832740
350125 39 18412265047147174161
394071 54 15625924479207236170
4073 2 18114189630953243738
4214541 1 18265333911076641537
4325135 7 18408042909721966620
497634 4 18336829684774821341
5104073 3 18340202977816277272
550186 72 18410572903210849581
6431902 208 18335984263702608667
67856867 119 18260835946320276517
7495541 125 18059850658422879418
7970288 3 18195523921303256463

> <PUBCHEM_SHAPE_MULTIPOLES>
487.45
18.19
3.53
0.71
12.43
0.87
0.07
4.12
0.49
-3.3
0.37
0.02
0.08
-0.72

> <PUBCHEM_SHAPE_SELFOVERLAP>
1063.523

> <PUBCHEM_SHAPE_VOLUME>
264.8

> <PUBCHEM_COORDINATE_TYPE>
2
5
10

$$$$
