49830789
  -OEChem-10052115183D

 28 30  0     0  0  0  0  0  0999 V2000
   -3.3020    0.7621    0.1803 S   0  0  0  0  0  0  0  0  0  0  0  0
    4.0677   -1.5319    1.8384 F   0  0  0  0  0  0  0  0  0  0  0  0
   -4.6442   -1.8803    0.0778 O   0  0  0  0  0  0  0  0  0  0  0  0
   -0.2990    3.4380    0.1409 N   0  0  0  0  0  0  0  0  0  0  0  0
   -2.7753   -3.1908   -0.1411 N   0  0  0  0  0  0  0  0  0  0  0  0
   -0.7262    0.6765   -0.0205 C   0  0  0  0  0  0  0  0  0  0  0  0
    0.5815    1.1951   -0.0827 C   0  0  0  0  0  0  0  0  0  0  0  0
   -1.7854    1.5775    0.1228 C   0  0  0  0  0  0  0  0  0  0  0  0
    1.7165    0.3185   -0.2316 C   0  0  0  0  0  0  0  0  0  0  0  0
   -1.2004   -0.6766   -0.0799 C   0  0  0  0  0  0  0  0  0  0  0  0
   -2.5687   -0.7683    0.0169 C   0  0  0  0  0  0  0  0  0  0  0  0
    0.7225    2.5707    0.0031 C   0  0  0  0  0  0  0  0  0  0  0  0
   -1.5585    2.9528    0.2022 C   0  0  0  0  0  0  0  0  0  0  0  0
    2.3563   -0.1919    0.8979 C   0  0  0  0  0  0  0  0  0  0  0  0
    2.1732   -0.0212   -1.5052 C   0  0  0  0  0  0  0  0  0  0  0  0
    3.4528   -1.0421    0.7540 C   0  0  0  0  0  0  0  0  0  0  0  0
    3.2698   -0.8712   -1.6491 C   0  0  0  0  0  0  0  0  0  0  0  0
   -3.3900   -1.9351   -0.0046 C   0  0  0  0  0  0  0  0  0  0  0  0
    3.9095   -1.3818   -0.5196 C   0  0  0  0  0  0  0  0  0  0  0  0
   -0.5475   -1.5337   -0.1898 H   0  0  0  0  0  0  0  0  0  0  0  0
    1.7025    3.0387   -0.0384 H   0  0  0  0  0  0  0  0  0  0  0  0
   -2.3548    3.6786    0.3132 H   0  0  0  0  0  0  0  0  0  0  0  0
    2.0132    0.0621    1.8980 H   0  0  0  0  0  0  0  0  0  0  0  0
    1.6855    0.3672   -2.3963 H   0  0  0  0  0  0  0  0  0  0  0  0
    3.6254   -1.1359   -2.6406 H   0  0  0  0  0  0  0  0  0  0  0  0
    4.7632   -2.0437   -0.6313 H   0  0  0  0  0  0  0  0  0  0  0  0
   -1.7714   -3.3121   -0.2195 H   0  0  0  0  0  0  0  0  0  0  0  0
   -3.3356   -4.0365   -0.1655 H   0  0  0  0  0  0  0  0  0  0  0  0
  1  8  1  0  0  0  0
  1 11  1  0  0  0  0
  2 16  1  0  0  0  0
  3 18  2  0  0  0  0
  4 12  1  0  0  0  0
  4 13  2  0  0  0  0
  5 18  1  0  0  0  0
  5 27  1  0  0  0  0
  5 28  1  0  0  0  0
  6  7  1  0  0  0  0
  6  8  2  0  0  0  0
  6 10  1  0  0  0  0
  7  9  1  0  0  0  0
  7 12  2  0  0  0  0
  8 13  1  0  0  0  0
  9 14  2  0  0  0  0
  9 15  1  0  0  0  0
 10 11  2  0  0  0  0
 10 20  1  0  0  0  0
 11 18  1  0  0  0  0
 12 21  1  0  0  0  0
 13 22  1  0  0  0  0
 14 16  1  0  0  0  0
 14 23  1  0  0  0  0
 15 17  2  0  0  0  0
 15 24  1  0  0  0  0
 16 19  2  0  0  0  0
 17 19  1  0  0  0  0
 17 25  1  0  0  0  0
 19 26  1  0  0  0  0
M  END
> <PUBCHEM_COMPOUND_CID>
49830789

> <PUBCHEM_CONFORMER_RMSD>
0.6

> <PUBCHEM_CONFORMER_DIVERSEORDER>
2
17
6
10
16
18
7
12
19
13
8
5
20
14
11
9
15
3
1
4

> <PUBCHEM_MMFF94_PARTIAL_CHARGES>
25
1 -0.08
10 -0.15
11 -0.05
12 0.16
13 0.16
14 -0.15
15 -0.15
16 0.19
17 -0.15
18 0.71
19 -0.15
2 -0.19
20 0.15
21 0.15
22 0.15
23 0.15
24 0.15
25 0.15
26 0.15
27 0.37
28 0.37
3 -0.57
4 -0.62
5 -0.8
8 0.04

> <PUBCHEM_EFFECTIVE_ROTOR_COUNT>
2

> <PUBCHEM_PHARMACOPHORE_FEATURES>
6
1 3 acceptor
1 4 acceptor
1 5 donor
5 1 6 8 10 11 rings
6 4 6 7 8 12 13 rings
6 9 14 15 16 17 19 rings

> <PUBCHEM_HEAVY_ATOM_COUNT>
19

> <PUBCHEM_ATOM_DEF_STEREO_COUNT>
0

> <PUBCHEM_ATOM_UDEF_STEREO_COUNT>
0

> <PUBCHEM_BOND_DEF_STEREO_COUNT>
0

> <PUBCHEM_BOND_UDEF_STEREO_COUNT>
0

> <PUBCHEM_ISOTOPIC_ATOM_COUNT>
0

> <PUBCHEM_COMPONENT_COUNT>
1

> <PUBCHEM_CACTVS_TAUTO_COUNT>
2

> <PUBCHEM_CONFORMER_ID>
02F85B8500000002

> <PUBCHEM_MMFF94_ENERGY>
50.5086

> <PUBCHEM_FEATURE_SELFOVERLAP>
30.512

> <PUBCHEM_SHAPE_FINGERPRINT>
10319926 262 18053359052253793722
10616163 171 18267027163315690534
11265709 11 18409728490811411843
114674 6 17178568161282176403
11578080 2 17604688020454190660
11582403 64 16257228622269876536
12236239 1 17677626254628005596
12363563 72 18411984688819626095
12553582 1 18410866476972931855
12788726 201 18335151868363345642
12824470 246 17968089802903605834
13052359 8 18119804716957123045
13083527 12 18194382610499218288
13140716 1 18413672422252241289
13538477 17 18189058586239928412
13878862 14 9651977574471043403
14178342 30 18193267503987576330
14787075 74 18117563040592097796
14790565 3 18051995627196281105
14863182 85 16821654644260165919
15042514 8 18266465308694571473
15342816 4 18336269028228194166
15442244 35 18269282416720535385
15885798 251 18412268363215010235
16752209 62 18190454957396300065
16945 1 18267591199637270837
18186145 218 12468641599308868710
19049666 15 17270321968828057772
19591789 44 17476659580861159913
20291156 8 18409171042864220303
20600515 1 18269264686510605272
20645477 70 17980198905392540855
20871998 22 18341615979012249809
21197605 99 13869274771968552474
21452121 199 18339076111315231236
21634736 98 18261121802310659228
21650355 55 18339350868915618408
21731516 1 18336276716092780473
22112679 90 17823988827296720492
23184049 29 18410853278295662728
23366157 5 18044943608549340037
23402539 116 18199173002510260349
23419403 2 17901629912820614564
23557571 272 18058450911554458012
23559900 14 18055356838921325558
23728640 28 18120369852621065379
257057 1 18338228370854995545
2748010 2 18341324595736053893
3084891 72 18195522598172968397
3091708 16 8919634707388757337
314173 41 18265904733721272015
5104073 3 18198634426944539851
58807428 26 17692537710843637513
5902787 121 18411138056149501940
602551 16 18269556027443334946
603831 33 18041858245998613588
7364860 26 17982738772409155125
77492 1 17605571946219115980
81228 2 18200038317723456897
9709674 26 18056483837860014510

> <PUBCHEM_SHAPE_MULTIPOLES>
371.76
7.4
3.35
1.1
1.22
1.23
-0.01
-6.29
0.54
-3.05
0.16
1.56
-0.35
-0.36

> <PUBCHEM_SHAPE_SELFOVERLAP>
817.625

> <PUBCHEM_SHAPE_VOLUME>
203.1

> <PUBCHEM_COORDINATE_TYPE>
2
5
10

$$$$
