24905182
  -OEChem-10052115143D

 39 42  0     0  0  0  0  0  0999 V2000
    4.1896    1.2260    2.3864 F   0  0  0  0  0  0  0  0  0  0  0  0
    4.2247    1.2325   -2.3678 O   0  0  0  0  0  0  0  0  0  0  0  0
   -1.8963    0.0552   -0.0143 N   0  0  0  0  0  0  0  0  0  0  0  0
   -0.7871    0.8177   -0.0085 N   0  0  0  0  0  0  0  0  0  0  0  0
   -2.5376   -2.2795   -0.0169 N   0  0  0  0  0  0  0  0  0  0  0  0
   -0.5910   -3.7496   -0.0057 N   0  0  0  0  0  0  0  0  0  0  0  0
    1.6486   -2.9242    0.0073 N   0  0  0  0  0  0  0  0  0  0  0  0
   -3.2561    0.7171   -0.0218 C   0  0  0  0  0  0  0  0  0  0  0  0
   -3.5184    1.6269   -1.2401 C   0  0  0  0  0  0  0  0  0  0  0  0
   -3.4882    1.6021    1.2158 C   0  0  0  0  0  0  0  0  0  0  0  0
   -3.7344    3.0259   -0.6740 C   0  0  0  0  0  0  0  0  0  0  0  0
   -4.3168    2.7710    0.7049 C   0  0  0  0  0  0  0  0  0  0  0  0
   -1.6378   -1.2833   -0.0124 C   0  0  0  0  0  0  0  0  0  0  0  0
   -0.2594   -1.4060   -0.0049 C   0  0  0  0  0  0  0  0  0  0  0  0
    0.2064   -0.0779   -0.0028 C   0  0  0  0  0  0  0  0  0  0  0  0
    1.5757    0.3714    0.0043 C   0  0  0  0  0  0  0  0  0  0  0  0
    0.2606   -2.6960   -0.0015 C   0  0  0  0  0  0  0  0  0  0  0  0
   -1.9183   -3.4797   -0.0131 C   0  0  0  0  0  0  0  0  0  0  0  0
    2.2449    0.5885   -1.2000 C   0  0  0  0  0  0  0  0  0  0  0  0
    2.2325    0.5865    1.2159 C   0  0  0  0  0  0  0  0  0  0  0  0
    3.5712    1.0207   -1.1928 C   0  0  0  0  0  0  0  0  0  0  0  0
    3.5588    1.0188    1.2232 C   0  0  0  0  0  0  0  0  0  0  0  0
    4.2282    1.2359    0.0187 C   0  0  0  0  0  0  0  0  0  0  0  0
   -3.9779   -0.1086   -0.0298 H   0  0  0  0  0  0  0  0  0  0  0  0
   -4.4343    1.2947   -1.7440 H   0  0  0  0  0  0  0  0  0  0  0  0
   -2.7130    1.6104   -1.9811 H   0  0  0  0  0  0  0  0  0  0  0  0
   -2.5455    1.9729    1.6351 H   0  0  0  0  0  0  0  0  0  0  0  0
   -4.0054    1.0559    2.0113 H   0  0  0  0  0  0  0  0  0  0  0  0
   -4.3954    3.6298   -1.3020 H   0  0  0  0  0  0  0  0  0  0  0  0
   -2.7737    3.5475   -0.5879 H   0  0  0  0  0  0  0  0  0  0  0  0
   -4.2457    3.6465    1.3564 H   0  0  0  0  0  0  0  0  0  0  0  0
   -5.3720    2.4838    0.6267 H   0  0  0  0  0  0  0  0  0  0  0  0
   -2.5716   -4.3456   -0.0163 H   0  0  0  0  0  0  0  0  0  0  0  0
    1.7356    0.4206   -2.1468 H   0  0  0  0  0  0  0  0  0  0  0  0
    1.7254    0.4213    2.1635 H   0  0  0  0  0  0  0  0  0  0  0  0
    2.3074   -2.1594    0.0103 H   0  0  0  0  0  0  0  0  0  0  0  0
    1.9844   -3.8780    0.0093 H   0  0  0  0  0  0  0  0  0  0  0  0
    5.2612    1.5725    0.0311 H   0  0  0  0  0  0  0  0  0  0  0  0
    3.6213    1.0349   -3.1046 H   0  0  0  0  0  0  0  0  0  0  0  0
  1 22  1  0  0  0  0
  2 21  1  0  0  0  0
  2 39  1  0  0  0  0
  3  4  1  0  0  0  0
  3  8  1  0  0  0  0
  3 13  1  0  0  0  0
  4 15  2  0  0  0  0
  5 13  2  0  0  0  0
  5 18  1  0  0  0  0
  6 17  1  0  0  0  0
  6 18  2  0  0  0  0
  7 17  1  0  0  0  0
  7 36  1  0  0  0  0
  7 37  1  0  0  0  0
  8  9  1  0  0  0  0
  8 10  1  0  0  0  0
  8 24  1  0  0  0  0
  9 11  1  0  0  0  0
  9 25  1  0  0  0  0
  9 26  1  0  0  0  0
 10 12  1  0  0  0  0
 10 27  1  0  0  0  0
 10 28  1  0  0  0  0
 11 12  1  0  0  0  0
 11 29  1  0  0  0  0
 11 30  1  0  0  0  0
 12 31  1  0  0  0  0
 12 32  1  0  0  0  0
 13 14  1  0  0  0  0
 14 15  1  0  0  0  0
 14 17  2  0  0  0  0
 15 16  1  0  0  0  0
 16 19  2  0  0  0  0
 16 20  1  0  0  0  0
 18 33  1  0  0  0  0
 19 21  1  0  0  0  0
 19 34  1  0  0  0  0
 20 22  2  0  0  0  0
 20 35  1  0  0  0  0
 21 23  2  0  0  0  0
 22 23  1  0  0  0  0
 23 38  1  0  0  0  0
M  END
> <PUBCHEM_COMPOUND_CID>
24905182

> <PUBCHEM_CONFORMER_RMSD>
0.6

> <PUBCHEM_CONFORMER_DIVERSEORDER>
1
4
17
7
5
15
10
18
13
8
9
3
14
16
6
11
2
12

> <PUBCHEM_MMFF94_PARTIAL_CHARGES>
25
1 -0.19
13 0.11
15 0.23
16 0.05
17 0.41
18 0.47
19 -0.15
2 -0.53
20 -0.15
21 0.08
22 0.19
23 -0.15
3 0.31
33 0.15
34 0.15
35 0.15
36 0.4
37 0.4
38 0.15
39 0.45
4 -0.71
5 -0.57
6 -0.62
7 -0.9
8 0.26

> <PUBCHEM_EFFECTIVE_ROTOR_COUNT>
3

> <PUBCHEM_PHARMACOPHORE_FEATURES>
10
1 2 donor
1 4 acceptor
1 7 cation
1 7 donor
3 3 5 13 cation
3 5 6 18 cation
5 3 4 13 14 15 rings
5 8 9 10 11 12 rings
6 16 19 20 21 22 23 rings
6 5 6 13 14 17 18 rings

> <PUBCHEM_HEAVY_ATOM_COUNT>
23

> <PUBCHEM_ATOM_DEF_STEREO_COUNT>
0

> <PUBCHEM_ATOM_UDEF_STEREO_COUNT>
0

> <PUBCHEM_BOND_DEF_STEREO_COUNT>
0

> <PUBCHEM_BOND_UDEF_STEREO_COUNT>
0

> <PUBCHEM_ISOTOPIC_ATOM_COUNT>
0

> <PUBCHEM_COMPONENT_COUNT>
1

> <PUBCHEM_CACTVS_TAUTO_COUNT>
15

> <PUBCHEM_CONFORMER_ID>
017C05DE00000001

> <PUBCHEM_MMFF94_ENERGY>
54.0972

> <PUBCHEM_FEATURE_SELFOVERLAP>
51.026

> <PUBCHEM_SHAPE_FINGERPRINT>
10165383 225 18267891435373995881
10319926 262 18126826400581817288
11049842 53 18335711529231810942
11582403 64 16913646087588026968
11725454 13 17273101744581618784
11796584 16 18341905082837257350
11833330 49 17977378662040216803
12160290 23 18267021837566604439
12173636 292 18410008879256335997
12236239 1 17460583960775085258
12422481 6 17827047664465920554
12553582 1 17832148590264088771
12788726 201 17972603465555234426
13134695 92 17255956776565746399
13140716 1 18265894657938979483
13878862 14 17543624237362067933
13965767 371 18116136797421600880
14178342 30 18337381755644335258
15842332 3 17749946799475076680
15961568 22 17403451274674750776
16752209 62 18265330792856752478
16988056 13 17037241910225181485
1741750 31 18412260631909874129
18186145 218 18060144227721923392
18785283 64 17973454204435074011
19784866 34 18271240504921780009
20510252 161 18126849523746423107
20600515 1 17549818232404192139
20642791 178 18260558788492599166
20739085 24 16903005817424648851
21065201 7 18269842068028167030
212916 134 18341037558533978576
21524375 3 18259980466344141177
2255824 54 17907579130062985943
22907989 373 18119808260040937655
23366157 5 17971191426653799539
23557571 272 18057609961226689704
23598291 2 17676763288339770652
2748010 2 18337685122127700535
283562 15 18267017456784566555
3091708 16 9411955319560168923
350125 39 18338244769340968003
458136 41 18194415398405883465
469060 322 18337401551686465265
474 4 18124024642605139289
495365 180 18121775033145867821
57527295 17 17417542323584882300
59755656 520 17843715242429618745
6049 1 17630059375713080056
633830 44 17846780663600066625
6443956 14 17476355007017510034
7615 1 17677882621110021740
77492 1 17532362261595201934
7808743 9 18336556018143808132
81228 2 18051133884835860971
84936 182 17984696723587703737
9849439 229 18339637841836116001
9862522 239 17968080998331659669
9981440 41 18338222783487282873

> <PUBCHEM_SHAPE_MULTIPOLES>
435.28
8.37
4.06
1.42
1.38
4.26
-0.02
-9
-0.1
-3.25
0.09
1.65
-1.07
-0.04

> <PUBCHEM_SHAPE_SELFOVERLAP>
964.895

> <PUBCHEM_SHAPE_VOLUME>
234.8

> <PUBCHEM_COORDINATE_TYPE>
2
5
10

$$$$
