21609265
  -OEChem-10052120443D

 16 17  0     0  0  0  0  0  0999 V2000
   -3.6761   -1.1057   -0.0075 Br  0  0  0  0  0  0  0  0  0  0  0  0
    2.0772   -2.0305    0.0054 O   0  0  0  0  0  0  0  0  0  0  0  0
    1.8049    1.4343   -0.0380 N   0  0  0  0  0  0  0  0  0  0  0  0
    2.5567    0.2739    0.0121 N   0  0  0  0  0  0  0  0  0  0  0  0
    0.3773   -0.3662   -0.0045 C   0  0  0  0  0  0  0  0  0  0  0  0
    0.4784    1.0237    0.0206 C   0  0  0  0  0  0  0  0  0  0  0  0
    1.7557   -0.8576    0.0026 C   0  0  0  0  0  0  0  0  0  0  0  0
   -0.8238   -1.0434   -0.0076 C   0  0  0  0  0  0  0  0  0  0  0  0
   -0.6655    1.7956    0.0098 C   0  0  0  0  0  0  0  0  0  0  0  0
   -1.9813   -0.2653    0.0000 C   0  0  0  0  0  0  0  0  0  0  0  0
   -1.9035    1.1411    0.0070 C   0  0  0  0  0  0  0  0  0  0  0  0
    2.1391    2.2839    0.3924 H   0  0  0  0  0  0  0  0  0  0  0  0
   -0.8578   -2.1269   -0.0157 H   0  0  0  0  0  0  0  0  0  0  0  0
   -0.6165    2.8792    0.0013 H   0  0  0  0  0  0  0  0  0  0  0  0
    3.5670    0.3341    0.0126 H   0  0  0  0  0  0  0  0  0  0  0  0
   -2.8106    1.7417    0.0046 H   0  0  0  0  0  0  0  0  0  0  0  0
  1 10  1  0  0  0  0
  2  7  2  0  0  0  0
  3  4  1  0  0  0  0
  3  6  1  0  0  0  0
  3 12  1  0  0  0  0
  4  7  1  0  0  0  0
  4 15  1  0  0  0  0
  5  6  2  0  0  0  0
  5  7  1  0  0  0  0
  5  8  1  0  0  0  0
  6  9  1  0  0  0  0
  8 10  2  0  0  0  0
  8 13  1  0  0  0  0
  9 11  2  0  0  0  0
  9 14  1  0  0  0  0
 10 11  1  0  0  0  0
 11 16  1  0  0  0  0
M  END
> <PUBCHEM_COMPOUND_CID>
21609265

> <PUBCHEM_CONFORMER_RMSD>
0.4

> <PUBCHEM_CONFORMER_DIVERSEORDER>
1

> <PUBCHEM_MMFF94_PARTIAL_CHARGES>
16
1 -0.11
10 0.11
11 -0.15
12 0.4
13 0.15
14 0.15
15 0.37
16 0.15
2 -0.57
3 -0.52
4 -0.41
5 0.09
6 0.1
7 0.54
8 -0.15
9 -0.15

> <PUBCHEM_EFFECTIVE_ROTOR_COUNT>
0

> <PUBCHEM_PHARMACOPHORE_FEATURES>
6
1 1 hydrophobe
1 2 acceptor
1 3 donor
1 4 donor
5 3 4 5 6 7 rings
6 5 6 8 9 10 11 rings

> <PUBCHEM_HEAVY_ATOM_COUNT>
11

> <PUBCHEM_ATOM_DEF_STEREO_COUNT>
0

> <PUBCHEM_ATOM_UDEF_STEREO_COUNT>
0

> <PUBCHEM_BOND_DEF_STEREO_COUNT>
0

> <PUBCHEM_BOND_UDEF_STEREO_COUNT>
0

> <PUBCHEM_ISOTOPIC_ATOM_COUNT>
0

> <PUBCHEM_COMPONENT_COUNT>
1

> <PUBCHEM_CACTVS_TAUTO_COUNT>
5

> <PUBCHEM_CONFORMER_ID>
0149BB3100000001

> <PUBCHEM_MMFF94_ENERGY>
39.8467

> <PUBCHEM_FEATURE_SELFOVERLAP>
32.042

> <PUBCHEM_SHAPE_FINGERPRINT>
12032990 46 18410300237153527191
12897270 3 18409730702730144781
14128692 85 18339086977708746470
14325111 11 18410573989905477761
161256 15 18411701001781601716
16945 1 18338517550823427297
193761 8 18338517409121232993
19973954 147 18338798914104627501
20201158 50 18262517104062508739
20645477 70 18411412930479397407
20871998 184 18058161739547940879
20871998 22 18270970029023894438
21040471 1 17906453221080905440
21501502 16 18338521841490468297
21501925 9 18337377288524945586
23552423 10 18261116231453246046
23559900 14 17549540705246731758
241688 4 18263926540271862417
2748010 2 18339075991124465541
5084963 1 18272368633578519339
528886 8 18195242449692019913

> <PUBCHEM_SHAPE_MULTIPOLES>
216.49
4.36
1.9
0.61
2.5
0.07
0
-1.6
0.01
-0.39
0
0.1
0
-0.01

> <PUBCHEM_SHAPE_SELFOVERLAP>
461.072

> <PUBCHEM_SHAPE_VOLUME>
125

> <PUBCHEM_COORDINATE_TYPE>
2
5
10

$$$$
