44340907
  -OEChem-10062121583D

 72 78  0     1  0  0  0  0  0999 V2000
   -4.0084   -0.9046    0.5119 O   0  0  0  0  0  0  0  0  0  0  0  0
   -2.5085    1.1681   -2.1404 O   0  0  0  0  0  0  0  0  0  0  0  0
   -4.8789    2.0893   -1.0516 O   0  0  0  0  0  0  0  0  0  0  0  0
   -7.1211    0.4129   -0.9292 O   0  0  0  0  0  0  0  0  0  0  0  0
   -5.7273   -1.5520    2.5529 O   0  0  0  0  0  0  0  0  0  0  0  0
    3.4173   -2.6892    0.4643 O   0  0  0  0  0  0  0  0  0  0  0  0
    4.3121    1.8569    0.7245 O   0  0  0  0  0  0  0  0  0  0  0  0
   -2.9436   -5.4170   -0.2966 O   0  0  0  0  0  0  0  0  0  0  0  0
   -2.2825    4.7651    0.1511 O   0  0  0  0  0  0  0  0  0  0  0  0
    7.1936   -2.9559    0.0681 O   0  0  0  0  0  0  0  0  0  0  0  0
    7.0819    0.4961   -2.3650 O   0  0  0  0  0  0  0  0  0  0  0  0
   -1.6887   -0.7082    0.0097 N   0  0  0  0  0  0  0  0  0  0  0  0
   -1.1516    2.0170    0.1661 N   0  0  0  0  0  0  0  0  0  0  0  0
    4.2425   -0.4934    0.6308 N   0  0  0  0  0  0  0  0  0  0  0  0
    5.5823   -0.7649    0.7597 N   0  0  0  0  0  0  0  0  0  0  0  0
   -3.0448   -0.0397   -0.1044 C   0  0  1  0  0  0  0  0  0  0  0  0
   -3.4251    0.2389   -1.5704 C   0  0  1  0  0  0  0  0  0  0  0  0
   -0.4210   -0.2610    0.1569 C   0  0  0  0  0  0  0  0  0  0  0  0
   -4.8482    0.7965   -1.6633 C   0  0  1  0  0  0  0  0  0  0  0  0
   -5.8108   -0.1398   -0.9297 C   0  0  1  0  0  0  0  0  0  0  0  0
    0.7077   -1.1434    0.2407 C   0  0  0  0  0  0  0  0  0  0  0  0
   -5.3378   -0.3749    0.5110 C   0  0  1  0  0  0  0  0  0  0  0  0
   -1.4804   -2.0789   -0.0204 C   0  0  0  0  0  0  0  0  0  0  0  0
   -0.1508    1.1103    0.2357 C   0  0  0  0  0  0  0  0  0  0  0  0
   -0.0824   -2.3768    0.1132 C   0  0  0  0  0  0  0  0  0  0  0  0
    2.0360   -0.7550    0.3926 C   0  0  0  0  0  0  0  0  0  0  0  0
    1.2257    1.4851    0.3919 C   0  0  0  0  0  0  0  0  0  0  0  0
    2.3047    0.6090    0.4709 C   0  0  0  0  0  0  0  0  0  0  0  0
    0.9637    2.9316    0.4187 C   0  0  0  0  0  0  0  0  0  0  0  0
   -6.2275   -1.3770    1.2399 C   0  0  0  0  0  0  0  0  0  0  0  0
   -0.4399    3.2013    0.2838 C   0  0  0  0  0  0  0  0  0  0  0  0
    3.2941   -1.4810    0.4961 C   0  0  0  0  0  0  0  0  0  0  0  0
   -2.4419   -3.0918   -0.1578 C   0  0  0  0  0  0  0  0  0  0  0  0
    3.7412    0.7890    0.6262 C   0  0  0  0  0  0  0  0  0  0  0  0
    0.2903   -3.7428    0.1011 C   0  0  0  0  0  0  0  0  0  0  0  0
   -2.0212   -4.4221   -0.1636 C   0  0  0  0  0  0  0  0  0  0  0  0
   -0.6766   -4.7448   -0.0359 C   0  0  0  0  0  0  0  0  0  0  0  0
    1.8257    4.0473    0.5494 C   0  0  0  0  0  0  0  0  0  0  0  0
   -0.9436    4.5110    0.2806 C   0  0  0  0  0  0  0  0  0  0  0  0
    6.2082   -0.8423   -0.5535 C   0  0  0  0  0  0  0  0  0  0  0  0
    1.3129    5.3490    0.5450 C   0  0  0  0  0  0  0  0  0  0  0  0
   -0.0508    5.5751    0.4124 C   0  0  0  0  0  0  0  0  0  0  0  0
    7.4929   -1.6639   -0.4460 C   0  0  0  0  0  0  0  0  0  0  0  0
    6.4808    0.5712   -1.0771 C   0  0  0  0  0  0  0  0  0  0  0  0
   -3.0377    0.7938    0.5888 H   0  0  0  0  0  0  0  0  0  0  0  0
   -3.3679   -0.6914   -2.1490 H   0  0  0  0  0  0  0  0  0  0  0  0
   -5.1514    0.9431   -2.7051 H   0  0  0  0  0  0  0  0  0  0  0  0
   -5.8458   -1.0983   -1.4630 H   0  0  0  0  0  0  0  0  0  0  0  0
   -5.3460    0.5520    1.0981 H   0  0  0  0  0  0  0  0  0  0  0  0
   -6.2050   -2.3523    0.7420 H   0  0  0  0  0  0  0  0  0  0  0  0
   -7.2618   -1.0259    1.3021 H   0  0  0  0  0  0  0  0  0  0  0  0
   -2.1066    1.9830   -0.1250 H   0  0  0  0  0  0  0  0  0  0  0  0
   -3.4937   -2.8870   -0.3138 H   0  0  0  0  0  0  0  0  0  0  0  0
    1.3311   -4.0345    0.1980 H   0  0  0  0  0  0  0  0  0  0  0  0
   -2.7830    1.3231   -3.0601 H   0  0  0  0  0  0  0  0  0  0  0  0
   -4.5503    2.0346   -0.1414 H   0  0  0  0  0  0  0  0  0  0  0  0
   -7.3808    0.5518   -1.8559 H   0  0  0  0  0  0  0  0  0  0  0  0
   -0.3627   -5.7858   -0.0420 H   0  0  0  0  0  0  0  0  0  0  0  0
    2.8971    3.9111    0.6549 H   0  0  0  0  0  0  0  0  0  0  0  0
    5.6652   -1.6611    1.2396 H   0  0  0  0  0  0  0  0  0  0  0  0
    5.5604   -1.3785   -1.2618 H   0  0  0  0  0  0  0  0  0  0  0  0
   -6.3040   -2.1973    2.9962 H   0  0  0  0  0  0  0  0  0  0  0  0
    1.9919    6.1915    0.6465 H   0  0  0  0  0  0  0  0  0  0  0  0
   -0.4158    6.5996    0.4127 H   0  0  0  0  0  0  0  0  0  0  0  0
   -3.8294   -5.0220   -0.3693 H   0  0  0  0  0  0  0  0  0  0  0  0
    8.2172   -1.1855    0.2231 H   0  0  0  0  0  0  0  0  0  0  0  0
    7.9602   -1.7915   -1.4279 H   0  0  0  0  0  0  0  0  0  0  0  0
    5.5618    1.1414   -1.2166 H   0  0  0  0  0  0  0  0  0  0  0  0
    7.1517    1.1258   -0.4121 H   0  0  0  0  0  0  0  0  0  0  0  0
   -2.4227    5.7272    0.1723 H   0  0  0  0  0  0  0  0  0  0  0  0
    8.0331   -3.4438    0.1195 H   0  0  0  0  0  0  0  0  0  0  0  0
    7.2466    1.4089   -2.6573 H   0  0  0  0  0  0  0  0  0  0  0  0
  1 16  1  0  0  0  0
  1 22  1  0  0  0  0
  2 17  1  0  0  0  0
  2 55  1  0  0  0  0
  3 19  1  0  0  0  0
  3 56  1  0  0  0  0
  4 20  1  0  0  0  0
  4 57  1  0  0  0  0
  5 30  1  0  0  0  0
  5 62  1  0  0  0  0
  6 32  2  0  0  0  0
  7 34  2  0  0  0  0
  8 36  1  0  0  0  0
  8 65  1  0  0  0  0
  9 39  1  0  0  0  0
  9 70  1  0  0  0  0
 10 43  1  0  0  0  0
 10 71  1  0  0  0  0
 11 44  1  0  0  0  0
 11 72  1  0  0  0  0
 12 16  1  0  0  0  0
 12 18  1  0  0  0  0
 12 23  1  0  0  0  0
 13 24  1  0  0  0  0
 13 31  1  0  0  0  0
 13 52  1  0  0  0  0
 14 15  1  0  0  0  0
 14 32  1  0  0  0  0
 14 34  1  0  0  0  0
 15 40  1  0  0  0  0
 15 60  1  0  0  0  0
 16 17  1  0  0  0  0
 16 45  1  0  0  0  0
 17 19  1  0  0  0  0
 17 46  1  0  0  0  0
 18 21  1  0  0  0  0
 18 24  2  0  0  0  0
 19 20  1  0  0  0  0
 19 47  1  0  0  0  0
 20 22  1  0  0  0  0
 20 48  1  0  0  0  0
 21 25  1  0  0  0  0
 21 26  2  0  0  0  0
 22 30  1  0  0  0  0
 22 49  1  0  0  0  0
 23 25  2  0  0  0  0
 23 33  1  0  0  0  0
 24 27  1  0  0  0  0
 25 35  1  0  0  0  0
 26 28  1  0  0  0  0
 26 32  1  0  0  0  0
 27 28  2  0  0  0  0
 27 29  1  0  0  0  0
 28 34  1  0  0  0  0
 29 31  2  0  0  0  0
 29 38  1  0  0  0  0
 30 50  1  0  0  0  0
 30 51  1  0  0  0  0
 31 39  1  0  0  0  0
 33 36  2  0  0  0  0
 33 53  1  0  0  0  0
 35 37  2  0  0  0  0
 35 54  1  0  0  0  0
 36 37  1  0  0  0  0
 37 58  1  0  0  0  0
 38 41  2  0  0  0  0
 38 59  1  0  0  0  0
 39 42  2  0  0  0  0
 40 43  1  0  0  0  0
 40 44  1  0  0  0  0
 40 61  1  0  0  0  0
 41 42  1  0  0  0  0
 41 63  1  0  0  0  0
 42 64  1  0  0  0  0
 43 66  1  0  0  0  0
 43 67  1  0  0  0  0
 44 68  1  0  0  0  0
 44 69  1  0  0  0  0
M  END
> <PUBCHEM_COMPOUND_CID>
44340907

> <PUBCHEM_CONFORMER_RMSD>
1

> <PUBCHEM_CONFORMER_DIVERSEORDER>
2
19
16
13
21
17
12
26
4
7
20
18
10
22
14
9
11
23
15
24
25
8
5
1
3
6

> <PUBCHEM_MMFF94_PARTIAL_CHARGES>
58
1 -0.56
10 -0.68
11 -0.68
12 -0.04
13 -0.05
14 -0.11
15 -0.64
16 0.54
17 0.28
18 -0.05
19 0.28
2 -0.68
20 0.28
21 -0.01
22 0.28
23 -0.15
24 -0.05
26 0.09
27 -0.01
28 0.09
3 -0.68
30 0.28
31 -0.15
32 0.54
33 -0.15
34 0.54
35 -0.15
36 0.08
37 -0.15
38 -0.15
39 0.08
4 -0.68
40 0.27
41 -0.15
42 -0.15
43 0.28
44 0.28
5 -0.68
52 0.27
53 0.15
54 0.15
55 0.4
56 0.4
57 0.4
58 0.15
59 0.15
6 -0.57
60 0.36
62 0.4
63 0.15
64 0.15
65 0.45
7 -0.57
70 0.45
71 0.4
72 0.4
8 -0.53
9 -0.53

> <PUBCHEM_EFFECTIVE_ROTOR_COUNT>
7.4

> <PUBCHEM_PHARMACOPHORE_FEATURES>
28
1 1 acceptor
1 10 acceptor
1 10 donor
1 11 acceptor
1 11 donor
1 12 cation
1 13 cation
1 13 donor
1 15 donor
1 2 acceptor
1 2 donor
1 3 acceptor
1 3 donor
1 4 acceptor
1 4 donor
1 5 acceptor
1 5 donor
1 6 acceptor
1 7 acceptor
1 8 donor
1 9 donor
5 12 18 21 23 25 rings
5 13 24 27 29 31 rings
5 14 26 28 32 34 rings
6 1 16 17 19 20 22 rings
6 18 21 24 26 27 28 rings
6 23 25 33 35 36 37 rings
6 29 31 38 39 41 42 rings

> <PUBCHEM_HEAVY_ATOM_COUNT>
44

> <PUBCHEM_ATOM_DEF_STEREO_COUNT>
0

> <PUBCHEM_ATOM_UDEF_STEREO_COUNT>
5

> <PUBCHEM_BOND_DEF_STEREO_COUNT>
0

> <PUBCHEM_BOND_UDEF_STEREO_COUNT>
0

> <PUBCHEM_ISOTOPIC_ATOM_COUNT>
0

> <PUBCHEM_COMPONENT_COUNT>
1

> <PUBCHEM_CACTVS_TAUTO_COUNT>
270

> <PUBCHEM_CONFORMER_ID>
02A496AB00000002

> <PUBCHEM_MMFF94_ENERGY>
164.4292

> <PUBCHEM_FEATURE_SELFOVERLAP>
142.62

> <PUBCHEM_SHAPE_FINGERPRINT>
10050765 1 18051410974719689987
10190108 129 18268717121588876945
102385 1 17835233828539253747
10675989 125 17182477518525870741
10864689 126 18337942407769336077
1100329 8 18339075016293425027
12058002 1 17487370180903474555
12633046 712 18193267714071488670
12788726 201 18263076639812095602
13140716 1 18051681441436842920
13911987 19 18335973178233275519
140371 6 18342179981353964984
14040222 275 18271817838788884060
14790565 3 18339077086325678457
14955137 171 18336554918351904131
15198563 99 18268431235506985532
15320467 1 18411129230461395489
15324884 4 17679558273000340613
15439362 3 18195514016781617681
15950262 2 15648171859475224116
16087824 20 18339360748105608457
16628084 112 18195522589446254278
19311894 1 18340480157631109963
19319366 153 17894623734766604706
19611394 137 18187942727988171875
20775438 99 17550907762416624964
21792961 116 18188207607242567130
21792965 169 18263382326052502582
21796203 349 18120125937592255675
22311459 1 18411415073784129002
22440779 20 16664333067056578690
23559900 14 18270390724161700472
23576562 1 18115868684272407879
24771750 20 17974864074864003708
283562 15 18197494021899091688
3178227 256 18408892845517282259
5171179 24 18050568744238200098
5265222 85 18260834851388199230
6700243 42 17842315607921269390
9961470 85 18127115605904016145

> <PUBCHEM_SHAPE_MULTIPOLES>
821.01
15.03
7.3
1.26
11.14
4.36
-0.32
-7.8
-3.43
-1.13
1.1
-0.83
0.11
1.25

> <PUBCHEM_SHAPE_SELFOVERLAP>
1851.438

> <PUBCHEM_SHAPE_VOLUME>
428.6

> <PUBCHEM_COORDINATE_TYPE>
2
5
10

$$$$
