11048367
  -OEChem-10052115143D

 61 64  0     0  0  0  0  0  0999 V2000
    2.9441   -1.3349    1.7832 O   0  0  0  0  0  0  0  0  0  0  0  0
   -4.6890    2.9380    0.4694 O   0  0  0  0  0  0  0  0  0  0  0  0
   -7.2136    1.9775   -0.1826 O   0  0  0  0  0  0  0  0  0  0  0  0
   -1.5876   -1.0807    0.1528 N   0  0  0  0  0  0  0  0  0  0  0  0
    1.0876   -0.4266    0.7534 N   0  0  0  0  0  0  0  0  0  0  0  0
    3.1984   -0.3268   -0.2911 N   0  0  0  0  0  0  0  0  0  0  0  0
   -3.0767   -2.8221   -0.4834 N   0  0  0  0  0  0  0  0  0  0  0  0
   -5.4258   -2.3925   -0.8051 N   0  0  0  0  0  0  0  0  0  0  0  0
   -0.7043   -0.5864   -0.9147 C   0  0  0  0  0  0  0  0  0  0  0  0
   -0.9258   -1.7141    1.3068 C   0  0  0  0  0  0  0  0  0  0  0  0
    0.3965    0.2906   -0.3226 C   0  0  0  0  0  0  0  0  0  0  0  0
    0.1961   -0.8235    1.8413 C   0  0  0  0  0  0  0  0  0  0  0  0
   -2.8828   -1.5058   -0.1668 C   0  0  0  0  0  0  0  0  0  0  0  0
    2.4613   -0.7330    0.8207 C   0  0  0  0  0  0  0  0  0  0  0  0
   -3.9690   -0.5985   -0.1637 C   0  0  0  0  0  0  0  0  0  0  0  0
   -5.2396   -1.0975   -0.4947 C   0  0  0  0  0  0  0  0  0  0  0  0
   -3.7863    0.7575    0.1594 C   0  0  0  0  0  0  0  0  0  0  0  0
    4.5839   -0.0334   -0.3430 C   0  0  0  0  0  0  0  0  0  0  0  0
   -6.3092   -0.2055   -0.4918 C   0  0  0  0  0  0  0  0  0  0  0  0
    8.7650    0.8530   -0.5005 C   0  0  0  0  0  0  0  0  0  0  0  0
   -4.8729    1.6266    0.1543 C   0  0  0  0  0  0  0  0  0  0  0  0
    7.3070    0.5435   -0.4457 C   0  0  0  0  0  0  0  0  0  0  0  0
   -4.3344   -3.1842   -0.7831 C   0  0  0  0  0  0  0  0  0  0  0  0
   -6.1356    1.1443   -0.1716 C   0  0  0  0  0  0  0  0  0  0  0  0
    5.1831    0.2681   -1.5635 C   0  0  0  0  0  0  0  0  0  0  0  0
    5.3400   -0.0475    0.8266 C   0  0  0  0  0  0  0  0  0  0  0  0
    6.5467    0.5568   -1.6150 C   0  0  0  0  0  0  0  0  0  0  0  0
    6.7037    0.2413    0.7751 C   0  0  0  0  0  0  0  0  0  0  0  0
    9.1310    2.1107    0.3101 C   0  0  0  0  0  0  0  0  0  0  0  0
    9.6361   -0.3334   -0.0459 C   0  0  0  0  0  0  0  0  0  0  0  0
   -4.3863    3.8274   -0.6042 C   0  0  0  0  0  0  0  0  0  0  0  0
   -7.9418    2.1108    1.0363 C   0  0  0  0  0  0  0  0  0  0  0  0
   -0.2651   -1.4421   -1.4422 H   0  0  0  0  0  0  0  0  0  0  0  0
   -1.2728    0.0002   -1.6461 H   0  0  0  0  0  0  0  0  0  0  0  0
   -1.6479   -1.8949    2.1123 H   0  0  0  0  0  0  0  0  0  0  0  0
   -0.5180   -2.6846    0.9975 H   0  0  0  0  0  0  0  0  0  0  0  0
   -0.0415    1.1912    0.1263 H   0  0  0  0  0  0  0  0  0  0  0  0
    1.0673    0.6339   -1.1102 H   0  0  0  0  0  0  0  0  0  0  0  0
   -0.2177    0.0941    2.2769 H   0  0  0  0  0  0  0  0  0  0  0  0
    0.7400   -1.3473    2.6332 H   0  0  0  0  0  0  0  0  0  0  0  0
    2.7188   -0.2515   -1.1816 H   0  0  0  0  0  0  0  0  0  0  0  0
   -2.8082    1.1530    0.4222 H   0  0  0  0  0  0  0  0  0  0  0  0
    9.0441    1.0624   -1.5422 H   0  0  0  0  0  0  0  0  0  0  0  0
   -7.3054   -0.5651   -0.7454 H   0  0  0  0  0  0  0  0  0  0  0  0
   -4.4910   -4.2262   -1.0341 H   0  0  0  0  0  0  0  0  0  0  0  0
    4.6015    0.2818   -2.4817 H   0  0  0  0  0  0  0  0  0  0  0  0
    4.9227   -0.2412    1.8070 H   0  0  0  0  0  0  0  0  0  0  0  0
    7.0008    0.7903   -2.5744 H   0  0  0  0  0  0  0  0  0  0  0  0
    7.2760    0.2325    1.6987 H   0  0  0  0  0  0  0  0  0  0  0  0
    8.9605    1.9708    1.3829 H   0  0  0  0  0  0  0  0  0  0  0  0
   10.1879    2.3627    0.1708 H   0  0  0  0  0  0  0  0  0  0  0  0
    8.5346    2.9703   -0.0152 H   0  0  0  0  0  0  0  0  0  0  0  0
    9.4036   -1.2321   -0.6278 H   0  0  0  0  0  0  0  0  0  0  0  0
   10.6982   -0.1062   -0.1881 H   0  0  0  0  0  0  0  0  0  0  0  0
    9.4848   -0.5707    1.0126 H   0  0  0  0  0  0  0  0  0  0  0  0
   -3.4468    3.5395   -1.0867 H   0  0  0  0  0  0  0  0  0  0  0  0
   -4.2746    4.8346   -0.1935 H   0  0  0  0  0  0  0  0  0  0  0  0
   -5.1986    3.8365   -1.3378 H   0  0  0  0  0  0  0  0  0  0  0  0
   -7.2991    2.5092    1.8278 H   0  0  0  0  0  0  0  0  0  0  0  0
   -8.7647    2.8110    0.8689 H   0  0  0  0  0  0  0  0  0  0  0  0
   -8.3595    1.1459    1.3410 H   0  0  0  0  0  0  0  0  0  0  0  0
  1 14  2  0  0  0  0
  2 21  1  0  0  0  0
  2 31  1  0  0  0  0
  3 24  1  0  0  0  0
  3 32  1  0  0  0  0
  4  9  1  0  0  0  0
  4 10  1  0  0  0  0
  4 13  1  0  0  0  0
  5 11  1  0  0  0  0
  5 12  1  0  0  0  0
  5 14  1  0  0  0  0
  6 14  1  0  0  0  0
  6 18  1  0  0  0  0
  6 41  1  0  0  0  0
  7 13  2  0  0  0  0
  7 23  1  0  0  0  0
  8 16  1  0  0  0  0
  8 23  2  0  0  0  0
  9 11  1  0  0  0  0
  9 33  1  0  0  0  0
  9 34  1  0  0  0  0
 10 12  1  0  0  0  0
 10 35  1  0  0  0  0
 10 36  1  0  0  0  0
 11 37  1  0  0  0  0
 11 38  1  0  0  0  0
 12 39  1  0  0  0  0
 12 40  1  0  0  0  0
 13 15  1  0  0  0  0
 15 16  1  0  0  0  0
 15 17  2  0  0  0  0
 16 19  2  0  0  0  0
 17 21  1  0  0  0  0
 17 42  1  0  0  0  0
 18 25  2  0  0  0  0
 18 26  1  0  0  0  0
 19 24  1  0  0  0  0
 19 44  1  0  0  0  0
 20 22  1  0  0  0  0
 20 29  1  0  0  0  0
 20 30  1  0  0  0  0
 20 43  1  0  0  0  0
 21 24  2  0  0  0  0
 22 27  2  0  0  0  0
 22 28  1  0  0  0  0
 23 45  1  0  0  0  0
 25 27  1  0  0  0  0
 25 46  1  0  0  0  0
 26 28  2  0  0  0  0
 26 47  1  0  0  0  0
 27 48  1  0  0  0  0
 28 49  1  0  0  0  0
 29 50  1  0  0  0  0
 29 51  1  0  0  0  0
 29 52  1  0  0  0  0
 30 53  1  0  0  0  0
 30 54  1  0  0  0  0
 30 55  1  0  0  0  0
 31 56  1  0  0  0  0
 31 57  1  0  0  0  0
 31 58  1  0  0  0  0
 32 59  1  0  0  0  0
 32 60  1  0  0  0  0
 32 61  1  0  0  0  0
M  END
> <PUBCHEM_COMPOUND_CID>
11048367

> <PUBCHEM_CONFORMER_RMSD>
1

> <PUBCHEM_CONFORMER_DIVERSEORDER>
1
31
21
7
55
37
15
53
40
30
51
28
64
20
41
43
45
39
11
27
10
32
4
22
38
62
19
25
12
16
54
2
33
56
47
57
36
3
58
49
9
46
44
23
13
18
50
34
8
35
52
5
60
63
6
42
24
48
14
59
29
26
17
61

> <PUBCHEM_MMFF94_PARTIAL_CHARGES>
37
1 -0.57
10 0.37
11 0.3
12 0.3
13 0.41
14 0.69
16 0.31
17 -0.15
18 0.12
19 -0.15
2 -0.36
20 0.14
21 0.08
22 -0.14
23 0.47
24 0.08
25 -0.15
26 -0.15
27 -0.15
28 -0.15
3 -0.36
31 0.28
32 0.28
4 -0.84
41 0.37
42 0.15
44 0.15
45 0.15
46 0.15
47 0.15
48 0.15
49 0.15
5 -0.66
6 -0.55
7 -0.62
8 -0.62
9 0.37

> <PUBCHEM_EFFECTIVE_ROTOR_COUNT>
8.2

> <PUBCHEM_PHARMACOPHORE_FEATURES>
11
1 1 acceptor
1 2 acceptor
1 3 acceptor
1 6 donor
3 20 29 30 hydrophobe
3 4 7 13 cation
3 7 8 23 cation
6 15 16 17 19 21 24 rings
6 18 22 25 26 27 28 rings
6 4 5 9 10 11 12 rings
6 7 8 13 15 16 23 rings

> <PUBCHEM_HEAVY_ATOM_COUNT>
32

> <PUBCHEM_ATOM_DEF_STEREO_COUNT>
0

> <PUBCHEM_ATOM_UDEF_STEREO_COUNT>
0

> <PUBCHEM_BOND_DEF_STEREO_COUNT>
0

> <PUBCHEM_BOND_UDEF_STEREO_COUNT>
0

> <PUBCHEM_ISOTOPIC_ATOM_COUNT>
0

> <PUBCHEM_COMPONENT_COUNT>
1

> <PUBCHEM_CACTVS_TAUTO_COUNT>
2

> <PUBCHEM_CONFORMER_ID>
00A895AF00000001

> <PUBCHEM_MMFF94_ENERGY>
133.6717

> <PUBCHEM_FEATURE_SELFOVERLAP>
55.984

> <PUBCHEM_SHAPE_FINGERPRINT>
10 15 13045944620949071106
100830 39 18411699872195153645
10411042 1 17980477086736549167
10454371 7 18342460330986278480
10670039 82 18410006646311373469
10906281 52 17748837323544675842
11135926 11 16877655777713467466
11181472 205 18334300851950748004
11315181 36 18260263088404459879
11456790 92 16081078295720527756
12082328 90 18412823616471402222
12089408 11 18333730243770015958
13690498 29 17987228009987992463
13726171 33 18122629354245854649
13885169 127 18412544327833128294
13914758 101 18408606959915087314
14294032 229 18114456761224716268
14856354 85 18339078293686457047
150020 25 17775569750077607336
15183329 4 18273215283481071850
15198563 99 16343434916485869168
15419008 47 17489585675432642632
15419008 91 17631716271280504072
15461852 350 18341898532648101214
15604295 49 18271801398066291336
1577012 14 18187077352254639426
16728433 281 18059583421116075824
16989713 51 17488171789584682983
17913733 40 14779263090130513336
20505436 4 18261107436278784835
20771845 165 18128263294342949031
21095123 145 12973609941180051794
21298829 104 18186802487617374538
21756936 100 18040720273197548235
21792961 116 17203614770549459138
23081809 10 18114174246807670178
23559900 14 17846210094421615627
23576562 1 16701437092274711249
255183 313 14418142828620296811
3178227 256 14779266419790340100
3711267 37 18337121085305499441
4073 2 18333171674019410698
4098825 35 18411699842868679022
4107672 100 18201998862983202318
44280117 145 18196934585746253726
44555599 121 17968384532772242140
445580 204 18333450937081772880
445580 37 18411983567669300080
44802255 64 17989205962480910055
44880568 143 18130508629851220632
4516262 110 18041269973145140951
5265222 85 18057883734952732806
57527295 17 16056319406970876223
5758199 1 17822008714244843066
5911458 16 18040722454555728604
5937810 71 17917438600594486024
59567204 34 18412262827029033057
6201320 215 18340762625362568192
636775 72 18335701676498348720
6475588 51 18408037420871021700
99344 41 18411138031261134254
9962374 69 12751232607009464354

> <PUBCHEM_SHAPE_MULTIPOLES>
616.03
28.82
2.93
1.26
46.3
1.05
0.19
15.27
-2.87
-7.68
-0.27
0.91
-0.26
-1.6

> <PUBCHEM_SHAPE_SELFOVERLAP>
1320.183

> <PUBCHEM_SHAPE_VOLUME>
337.8

> <PUBCHEM_COORDINATE_TYPE>
2
5
10

$$$$
