44398371
  -OEChem-10062121593D

 43 45  0     0  0  0  0  0  0999 V2000
    5.6884   -1.1759    0.1450 S   0  0  0  0  0  0  0  0  0  0  0  0
   -2.0172   -0.8380   -1.9817 F   0  0  0  0  0  0  0  0  0  0  0  0
   -4.2369   -0.8862    2.2127 F   0  0  0  0  0  0  0  0  0  0  0  0
   -4.4461    1.0923    0.0563 O   0  0  0  0  0  0  0  0  0  0  0  0
    5.2675   -2.4823   -0.3414 O   0  0  0  0  0  0  0  0  0  0  0  0
    6.8341   -0.5131   -0.4622 O   0  0  0  0  0  0  0  0  0  0  0  0
   -2.2682    1.5656   -0.0578 N   0  0  0  0  0  0  0  0  0  0  0  0
    1.0027    2.5313   -0.1040 N   0  0  0  0  0  0  0  0  0  0  0  0
   -0.9744    1.1830   -0.0203 N   0  0  0  0  0  0  0  0  0  0  0  0
   -1.1429    3.4559   -0.1690 N   0  0  0  0  0  0  0  0  0  0  0  0
    5.9405   -1.2709    1.8323 N   0  0  0  0  0  0  0  0  0  0  0  0
   -3.1306   -0.8296    0.1114 C   0  0  0  0  0  0  0  0  0  0  0  0
    2.1347    1.6363   -0.0438 C   0  0  0  0  0  0  0  0  0  0  0  0
   -2.3464    2.9335   -0.1355 C   0  0  0  0  0  0  0  0  0  0  0  0
   -3.3069    0.6367    0.0312 C   0  0  0  0  0  0  0  0  0  0  0  0
   -0.3440    2.3555   -0.0966 C   0  0  0  0  0  0  0  0  0  0  0  0
    4.3202   -0.0938    0.0731 C   0  0  0  0  0  0  0  0  0  0  0  0
   -2.4815   -1.5111   -0.9180 C   0  0  0  0  0  0  0  0  0  0  0  0
   -2.3139   -2.8939   -0.8420 C   0  0  0  0  0  0  0  0  0  0  0  0
    3.4318    2.1483   -0.0732 C   0  0  0  0  0  0  0  0  0  0  0  0
    1.9302    0.2592    0.0438 C   0  0  0  0  0  0  0  0  0  0  0  0
    4.5247    1.2834   -0.0146 C   0  0  0  0  0  0  0  0  0  0  0  0
    3.0230   -0.6057    0.1022 C   0  0  0  0  0  0  0  0  0  0  0  0
   -3.6122   -1.5307    1.2170 C   0  0  0  0  0  0  0  0  0  0  0  0
   -2.7956   -3.5950    0.2634 C   0  0  0  0  0  0  0  0  0  0  0  0
   -3.6159    3.6851   -0.1808 C   0  0  0  0  0  0  0  0  0  0  0  0
   -3.4447   -2.9135    1.2931 C   0  0  0  0  0  0  0  0  0  0  0  0
   -1.6203   -3.6265   -1.9406 C   0  0  0  0  0  0  0  0  0  0  0  0
    1.3260    3.4958   -0.1653 H   0  0  0  0  0  0  0  0  0  0  0  0
    3.6054    3.2192   -0.1400 H   0  0  0  0  0  0  0  0  0  0  0  0
    0.9484   -0.1956    0.0711 H   0  0  0  0  0  0  0  0  0  0  0  0
    5.5260    1.7044   -0.0324 H   0  0  0  0  0  0  0  0  0  0  0  0
    2.8412   -1.6743    0.1764 H   0  0  0  0  0  0  0  0  0  0  0  0
   -2.6731   -4.6724    0.3371 H   0  0  0  0  0  0  0  0  0  0  0  0
   -4.2215    3.3939   -1.0444 H   0  0  0  0  0  0  0  0  0  0  0  0
   -4.1951    3.5435    0.7367 H   0  0  0  0  0  0  0  0  0  0  0  0
   -3.4147    4.7578   -0.2741 H   0  0  0  0  0  0  0  0  0  0  0  0
   -3.8196   -3.4590    2.1540 H   0  0  0  0  0  0  0  0  0  0  0  0
   -2.1857   -3.5324   -2.8734 H   0  0  0  0  0  0  0  0  0  0  0  0
   -0.6140   -3.2214   -2.0904 H   0  0  0  0  0  0  0  0  0  0  0  0
   -1.5165   -4.6939   -1.7189 H   0  0  0  0  0  0  0  0  0  0  0  0
    5.7029   -2.1537    2.3009 H   0  0  0  0  0  0  0  0  0  0  0  0
    6.7725   -0.8070    2.2169 H   0  0  0  0  0  0  0  0  0  0  0  0
  1  5  2  0  0  0  0
  1  6  2  0  0  0  0
  1 11  1  0  0  0  0
  1 17  1  0  0  0  0
  2 18  1  0  0  0  0
  3 24  1  0  0  0  0
  4 15  2  0  0  0  0
  7  9  1  0  0  0  0
  7 14  1  0  0  0  0
  7 15  1  0  0  0  0
  8 13  1  0  0  0  0
  8 16  1  0  0  0  0
  8 29  1  0  0  0  0
  9 16  2  0  0  0  0
 10 14  2  0  0  0  0
 10 16  1  0  0  0  0
 11 42  1  0  0  0  0
 11 43  1  0  0  0  0
 12 15  1  0  0  0  0
 12 18  1  0  0  0  0
 12 24  2  0  0  0  0
 13 20  2  0  0  0  0
 13 21  1  0  0  0  0
 14 26  1  0  0  0  0
 17 22  2  0  0  0  0
 17 23  1  0  0  0  0
 18 19  2  0  0  0  0
 19 25  1  0  0  0  0
 19 28  1  0  0  0  0
 20 22  1  0  0  0  0
 20 30  1  0  0  0  0
 21 23  2  0  0  0  0
 21 31  1  0  0  0  0
 22 32  1  0  0  0  0
 23 33  1  0  0  0  0
 24 27  1  0  0  0  0
 25 27  2  0  0  0  0
 25 34  1  0  0  0  0
 26 35  1  0  0  0  0
 26 36  1  0  0  0  0
 26 37  1  0  0  0  0
 27 38  1  0  0  0  0
 28 39  1  0  0  0  0
 28 40  1  0  0  0  0
 28 41  1  0  0  0  0
M  END
> <PUBCHEM_COMPOUND_CID>
44398371

> <PUBCHEM_CONFORMER_RMSD>
0.8

> <PUBCHEM_CONFORMER_DIVERSEORDER>
1
221
30
34
159
167
310
72
225
154
141
301
272
15
176
52
120
304
14
263
308
33
198
165
253
322
16
265
112
296
2
313
274
135
285
24
244
202
316
48
214
28
162
90
129
299
250
312
254
204
20
222
210
195
223
107
147
63
267
124
3
297
145
266
252
58
76
282
41
77
199
178
273
257
42
118
136
99
171
4
143
211
288
177
327
259
13
91
133
163
181
241
246
25
84
268
32
261
298
103
98
88
132
12
245
152
22
94
138
281
137
68
74
158
200
235
287
149
109
303
75
300
326
36
291
192
208
262
280
275
21
226
139
53
169
324
242
201
70
251
45
65
190
71
189
311
160
86
243
170
117
315
62
220
228
56
258
67
49
150
233
193
140
229
260
240
126
50
323
37
11
157
196
289
115
64
271
73
319
130
69
329
89
215
209
248
212
60
307
17
96
57
27
187
128
39
87
54
321
83
146
151
95
203
78
219
284
283
234
101
184
277
106
216
85
231
61
100
238
142
127
47
172
108
182
197
23
46
80
43
156
59
213
292
110
179
306
232
26
236
79
318
40
105
295
325
113
264
186
19
175
81
153
125
294
7
164
93
290
111
217
247
6
166
104
293
239
31
249
278
328
302
5
180
116
314
168
144
269
82
224
148
9
66
134
119
55
255
122
114
102
286
35
270
191
227
44
155
194
183
29
10
123
305
276
279
317
207
185
38
97
205
51
18
320
206
8
161
218
237
188
309
256
174
173
121
230
131
92

> <PUBCHEM_MMFF94_PARTIAL_CHARGES>
37
1 1.45
10 -0.57
11 -0.98
12 0.09
13 0.1
14 0.01
15 0.49
16 0.6
17 -0.01
18 0.19
19 -0.14
2 -0.19
20 -0.15
21 -0.15
22 -0.15
23 -0.15
24 0.19
25 -0.15
26 0.18
27 -0.15
28 0.14
29 0.4
3 -0.19
30 0.15
31 0.15
32 0.15
33 0.15
34 0.15
38 0.15
4 -0.57
42 0.42
43 0.42
5 -0.65
6 -0.65
7 0.56
8 -0.58
9 -0.71

> <PUBCHEM_EFFECTIVE_ROTOR_COUNT>
5

> <PUBCHEM_PHARMACOPHORE_FEATURES>
9
1 11 donor
1 4 acceptor
1 5 acceptor
1 6 acceptor
1 8 donor
4 8 9 10 16 cation
5 7 9 10 14 16 rings
6 12 18 19 24 25 27 rings
6 13 17 20 21 22 23 rings

> <PUBCHEM_HEAVY_ATOM_COUNT>
28

> <PUBCHEM_ATOM_DEF_STEREO_COUNT>
0

> <PUBCHEM_ATOM_UDEF_STEREO_COUNT>
0

> <PUBCHEM_BOND_DEF_STEREO_COUNT>
0

> <PUBCHEM_BOND_UDEF_STEREO_COUNT>
0

> <PUBCHEM_ISOTOPIC_ATOM_COUNT>
0

> <PUBCHEM_COMPONENT_COUNT>
1

> <PUBCHEM_CACTVS_TAUTO_COUNT>
2

> <PUBCHEM_CONFORMER_ID>
02A5772300000001

> <PUBCHEM_MMFF94_ENERGY>
53.9936

> <PUBCHEM_FEATURE_SELFOVERLAP>
45.689

> <PUBCHEM_SHAPE_FINGERPRINT>
10462674 125 15332317658731436582
10483366 6 18199726156181103615
10928967 22 18053112997123182502
11014199 57 18053375784708224798
11135609 99 18193835948075029318
11524674 6 17917141689647094893
11552529 35 17558552658222283659
12107183 9 18123770883548613267
12174731 88 17826774964118679282
12422481 6 18130806550157435210
12553582 1 17978793733431298597
12633257 1 17489317424448790712
13726171 33 17982489063280150212
14279260 333 18113615639488672434
14844126 61 18410566284343700633
14866123 147 18410576167833666353
15042514 8 18409171004457876289
15250474 111 18260820472164668330
15537594 2 18193291890574187772
15927050 60 17549259229995629973
16110190 28 18341904029657425496
16719943 64 18265892462978095089
17492 89 18335703909495428368
21133410 171 17401706152158632502
21133410 38 15312128623311668010
221490 88 18410294744302059160
22956985 138 10945499205229833037
229767 44 18341911675079014625
23559900 14 18409441488655799408
3383291 50 18411409597579221435
3737641 26 18194689387259937060
4073 2 18409446965187014160
44062 13 18410012113609510528
445580 160 18342185415088994534
44880168 125 17560538269112019158
484985 159 18335132116357786735
508706 21 18343585110006747766
5104073 3 18411980244082792144
5309563 4 17689158232859163443
5364581 5 18127668604803152904
559249 180 18191017915807865240
56633871 153 18269002058245891899
6138700 20 18411133624682061141
6431902 208 18336542837141864410
70251023 43 17618491530189941079
7097593 13 17622458555262809901
7970288 3 18120376724437591075

> <PUBCHEM_SHAPE_MULTIPOLES>
523.02
12.7
4.98
1.26
21.39
0.42
0.11
-5.79
2.83
-5.27
-0.87
-0.97
-1.23
-0.05

> <PUBCHEM_SHAPE_SELFOVERLAP>
1127.078

> <PUBCHEM_SHAPE_VOLUME>
291.9

> <PUBCHEM_COORDINATE_TYPE>
2
5
10

$$$$
