10318148
  -OEChem-10062122043D

 48 51  0     0  0  0  0  0  0999 V2000
    2.2403    4.5006    0.5547 O   0  0  0  0  0  0  0  0  0  0  0  0
   -2.2432    4.4986   -0.5539 O   0  0  0  0  0  0  0  0  0  0  0  0
    6.6910   -2.2801   -0.4478 O   0  0  0  0  0  0  0  0  0  0  0  0
   -6.6899   -2.2813    0.4490 O   0  0  0  0  0  0  0  0  0  0  0  0
    1.3791   -0.8362    0.3416 N   0  0  0  0  0  0  0  0  0  0  0  0
   -1.3784   -0.8369   -0.3427 N   0  0  0  0  0  0  0  0  0  0  0  0
   -0.0016    4.9048    0.0006 N   0  0  0  0  0  0  0  0  0  0  0  0
    0.6732    2.7542    0.1668 C   0  0  0  0  0  0  0  0  0  0  0  0
   -0.6743    2.7537   -0.1675 C   0  0  0  0  0  0  0  0  0  0  0  0
    0.6846    0.3854    0.1692 C   0  0  0  0  0  0  0  0  0  0  0  0
   -0.6840    0.3849   -0.1705 C   0  0  0  0  0  0  0  0  0  0  0  0
    1.3823    1.5842    0.3425 C   0  0  0  0  0  0  0  0  0  0  0  0
   -1.3827    1.5832   -0.3435 C   0  0  0  0  0  0  0  0  0  0  0  0
    1.1111    4.1454    0.2761 C   0  0  0  0  0  0  0  0  0  0  0  0
   -1.1135    4.1446   -0.2756 C   0  0  0  0  0  0  0  0  0  0  0  0
    2.7209   -1.2010    0.1417 C   0  0  0  0  0  0  0  0  0  0  0  0
   -2.7201   -1.2017   -0.1423 C   0  0  0  0  0  0  0  0  0  0  0  0
    3.2995   -2.2055    0.9222 C   0  0  0  0  0  0  0  0  0  0  0  0
   -3.2990   -2.2063   -0.9226 C   0  0  0  0  0  0  0  0  0  0  0  0
    3.4853   -0.5613   -0.8382 C   0  0  0  0  0  0  0  0  0  0  0  0
   -3.4842   -0.5622    0.8380 C   0  0  0  0  0  0  0  0  0  0  0  0
    4.6320   -2.5677    0.7244 C   0  0  0  0  0  0  0  0  0  0  0  0
   -4.6314   -2.5686   -0.7243 C   0  0  0  0  0  0  0  0  0  0  0  0
    4.8177   -0.9234   -1.0360 C   0  0  0  0  0  0  0  0  0  0  0  0
   -4.8164   -0.9246    1.0364 C   0  0  0  0  0  0  0  0  0  0  0  0
    5.3911   -1.9267   -0.2547 C   0  0  0  0  0  0  0  0  0  0  0  0
   -5.3900   -1.9278    0.2552 C   0  0  0  0  0  0  0  0  0  0  0  0
    7.2138   -3.3135    0.3857 C   0  0  0  0  0  0  0  0  0  0  0  0
   -7.2130   -3.3146   -0.3845 C   0  0  0  0  0  0  0  0  0  0  0  0
    2.4282    1.6167    0.6258 H   0  0  0  0  0  0  0  0  0  0  0  0
   -2.4286    1.6151   -0.6267 H   0  0  0  0  0  0  0  0  0  0  0  0
    0.7966   -1.5855    0.7041 H   0  0  0  0  0  0  0  0  0  0  0  0
   -0.7959   -1.5861   -0.7055 H   0  0  0  0  0  0  0  0  0  0  0  0
   -0.0021    5.9188    0.0010 H   0  0  0  0  0  0  0  0  0  0  0  0
    2.7183   -2.7119    1.6891 H   0  0  0  0  0  0  0  0  0  0  0  0
   -2.7181   -2.7125   -1.6899 H   0  0  0  0  0  0  0  0  0  0  0  0
    3.0597    0.2072   -1.4779 H   0  0  0  0  0  0  0  0  0  0  0  0
   -3.0584    0.2062    1.4777 H   0  0  0  0  0  0  0  0  0  0  0  0
    5.0141   -3.3543    1.3661 H   0  0  0  0  0  0  0  0  0  0  0  0
   -5.0137   -3.3551   -1.3659 H   0  0  0  0  0  0  0  0  0  0  0  0
    5.4027   -0.4242   -1.8035 H   0  0  0  0  0  0  0  0  0  0  0  0
   -5.4011   -0.4256    1.8044 H   0  0  0  0  0  0  0  0  0  0  0  0
    6.6949   -4.2640    0.2215 H   0  0  0  0  0  0  0  0  0  0  0  0
    7.2150   -3.0179    1.4403 H   0  0  0  0  0  0  0  0  0  0  0  0
    8.2585   -3.4655    0.0953 H   0  0  0  0  0  0  0  0  0  0  0  0
   -6.6940   -4.2651   -0.2206 H   0  0  0  0  0  0  0  0  0  0  0  0
   -7.2147   -3.0189   -1.4390 H   0  0  0  0  0  0  0  0  0  0  0  0
   -8.2576   -3.4667   -0.0936 H   0  0  0  0  0  0  0  0  0  0  0  0
  1 14  2  0  0  0  0
  2 15  2  0  0  0  0
  3 26  1  0  0  0  0
  3 28  1  0  0  0  0
  4 27  1  0  0  0  0
  4 29  1  0  0  0  0
  5 10  1  0  0  0  0
  5 16  1  0  0  0  0
  5 32  1  0  0  0  0
  6 11  1  0  0  0  0
  6 17  1  0  0  0  0
  6 33  1  0  0  0  0
  7 14  1  0  0  0  0
  7 15  1  0  0  0  0
  7 34  1  0  0  0  0
  8  9  1  0  0  0  0
  8 12  2  0  0  0  0
  8 14  1  0  0  0  0
  9 13  2  0  0  0  0
  9 15  1  0  0  0  0
 10 11  2  0  0  0  0
 10 12  1  0  0  0  0
 11 13  1  0  0  0  0
 12 30  1  0  0  0  0
 13 31  1  0  0  0  0
 16 18  2  0  0  0  0
 16 20  1  0  0  0  0
 17 19  2  0  0  0  0
 17 21  1  0  0  0  0
 18 22  1  0  0  0  0
 18 35  1  0  0  0  0
 19 23  1  0  0  0  0
 19 36  1  0  0  0  0
 20 24  2  0  0  0  0
 20 37  1  0  0  0  0
 21 25  2  0  0  0  0
 21 38  1  0  0  0  0
 22 26  2  0  0  0  0
 22 39  1  0  0  0  0
 23 27  2  0  0  0  0
 23 40  1  0  0  0  0
 24 26  1  0  0  0  0
 24 41  1  0  0  0  0
 25 27  1  0  0  0  0
 25 42  1  0  0  0  0
 28 43  1  0  0  0  0
 28 44  1  0  0  0  0
 28 45  1  0  0  0  0
 29 46  1  0  0  0  0
 29 47  1  0  0  0  0
 29 48  1  0  0  0  0
M  END
> <PUBCHEM_COMPOUND_CID>
10318148

> <PUBCHEM_CONFORMER_RMSD>
0.8

> <PUBCHEM_CONFORMER_DIVERSEORDER>
1
10
21
23
13
12
15
2
11
22
19
14
3
9
26
8
28
24
17
16
5
25
27
4
7
6
20
18

> <PUBCHEM_MMFF94_PARTIAL_CHARGES>
42
1 -0.57
10 0.1
11 0.1
12 -0.15
13 -0.15
14 0.54
15 0.54
16 0.1
17 0.1
18 -0.15
19 -0.15
2 -0.57
20 -0.15
21 -0.15
22 -0.15
23 -0.15
24 -0.15
25 -0.15
26 0.08
27 0.08
28 0.28
29 0.28
3 -0.36
30 0.15
31 0.15
32 0.4
33 0.4
34 0.37
35 0.15
36 0.15
37 0.15
38 0.15
39 0.15
4 -0.36
40 0.15
41 0.15
42 0.15
5 -0.6
6 -0.6
7 -0.49
8 0.09
9 0.09

> <PUBCHEM_EFFECTIVE_ROTOR_COUNT>
6.2

> <PUBCHEM_PHARMACOPHORE_FEATURES>
13
1 1 acceptor
1 2 acceptor
1 3 acceptor
1 4 acceptor
1 5 cation
1 5 donor
1 6 cation
1 6 donor
1 7 donor
5 7 8 9 14 15 rings
6 16 18 20 22 24 26 rings
6 17 19 21 23 25 27 rings
6 8 9 10 11 12 13 rings

> <PUBCHEM_HEAVY_ATOM_COUNT>
29

> <PUBCHEM_ATOM_DEF_STEREO_COUNT>
0

> <PUBCHEM_ATOM_UDEF_STEREO_COUNT>
0

> <PUBCHEM_BOND_DEF_STEREO_COUNT>
0

> <PUBCHEM_BOND_UDEF_STEREO_COUNT>
0

> <PUBCHEM_ISOTOPIC_ATOM_COUNT>
0

> <PUBCHEM_COMPONENT_COUNT>
1

> <PUBCHEM_CACTVS_TAUTO_COUNT>
17

> <PUBCHEM_CONFORMER_ID>
009D714400000001

> <PUBCHEM_MMFF94_ENERGY>
133.4114

> <PUBCHEM_FEATURE_SELFOVERLAP>
66.071

> <PUBCHEM_SHAPE_FINGERPRINT>
10411042 1 18410573989446730243
10622 236 17628620153990809223
11056379 131 18195253213529338918
11135609 149 18196070339536425485
11991303 11 17753609032078676605
12107183 9 18342470218812702081
12342043 65 17201937933781853558
12516196 113 18409729577428302810
12553582 1 18410847763552750190
12788726 201 18189051997623245650
12988421 55 16337459238645623976
13248334 5 18050567636026224984
13533116 47 18197217173456817955
13540713 4 18338496599910348960
13590594 115 18409738361126533665
13631057 29 18262237712572438410
13692115 27 18272660038546186771
13785724 45 18412830209182579343
138480 1 14880313298238319044
13955234 65 18051696843447607025
14068700 675 18333735693835783422
14347332 77 18337675188153434902
14394314 77 18338520741979048875
14739800 52 17058650905230560721
14844126 61 18192994820555323522
15042514 8 18194968443721699468
15064981 194 18124328108247688628
15439362 3 18049724315271608941
15927050 60 17692816303802483326
15968369 26 17610622290439679592
16087824 20 18121780527005866021
16990366 60 18261669384745547922
16992752 21 18338808836323347446
17492 89 18123470738164813619
1813 80 18343033202176620439
19427546 20 18191026699374370148
20028762 73 17117756393610255174
20101258 96 18411418367327478936
21049683 271 18189625006284234708
21344244 78 18128243674990259441
21478907 32 18410012121946438821
21781055 127 16341489958200601219
21796203 349 18048917148829479187
22950370 63 18410579487005148455
23522609 53 18122379897179020933
23559900 14 18193554691603360067
24771750 20 17467081073282981404
249999 5 18052819431576072145
255183 451 18341896346135409343
283562 15 18188492354805198026
3004659 81 17967249797738096602
3103668 31 18262235492174723133
3421961 26 18339079422961493097
3627633 1 18338235951361737101
4144715 1 18043250357275603475
4409770 3 18119527635758356117
463206 1 18334580182700541778
469060 322 18269570350937871170
474 4 17689716781098535617
5309563 4 18410571781997401779
5385378 56 18052258693953061249
5969126 39 18410572847491857698
6058803 2 17826522055317190762
6697151 62 18195220383073576607
6700243 42 17843150042372199534
70251023 43 18408323314961644419
77188 2 18410574015264325221
7970288 3 18410854360617755275
9962374 69 18129658755151500215
9981440 41 17184190544103013616

> <PUBCHEM_SHAPE_MULTIPOLES>
558.39
15.14
6.78
0.9
0.02
10.4
0
-27.91
0
-0.01
0
0
-0.3
-0.32

> <PUBCHEM_SHAPE_SELFOVERLAP>
1234.797

> <PUBCHEM_SHAPE_VOLUME>
300.7

> <PUBCHEM_COORDINATE_TYPE>
2
5
10

$$$$
