49830506
  -OEChem-10062121553D

 40 42  0     0  0  0  0  0  0999 V2000
    6.0667    1.0188   -1.5036 O   0  0  0  0  0  0  0  0  0  0  0  0
    1.2512    2.0612    0.6519 O   0  0  0  0  0  0  0  0  0  0  0  0
    1.4577   -0.0273    1.6393 N   0  0  0  0  0  0  0  0  0  0  0  0
   -2.8823    1.4627    0.1947 N   0  0  0  0  0  0  0  0  0  0  0  0
   -2.3979   -0.8977    0.1684 N   0  0  0  0  0  0  0  0  0  0  0  0
   -7.2636   -0.6566   -0.8836 N   0  0  0  0  0  0  0  0  0  0  0  0
    2.8332    0.1121    2.0457 C   0  0  0  0  0  0  0  0  0  0  0  0
    3.7843   -0.3624    0.9999 C   0  0  0  0  0  0  0  0  0  0  0  0
    4.4900    0.5609    0.2283 C   0  0  0  0  0  0  0  0  0  0  0  0
    3.9681   -1.7297    0.7926 C   0  0  0  0  0  0  0  0  0  0  0  0
    5.3793    0.1173   -0.7503 C   0  0  0  0  0  0  0  0  0  0  0  0
    0.7722    0.9747    0.9662 C   0  0  0  0  0  0  0  0  0  0  0  0
   -0.6482    0.6862    0.6408 C   0  0  0  0  0  0  0  0  0  0  0  0
    4.8573   -2.1733   -0.1862 C   0  0  0  0  0  0  0  0  0  0  0  0
    5.5632   -1.2499   -0.9576 C   0  0  0  0  0  0  0  0  0  0  0  0
   -3.2150    0.1659    0.0489 C   0  0  0  0  0  0  0  0  0  0  0  0
   -4.5915   -0.1132   -0.2683 C   0  0  0  0  0  0  0  0  0  0  0  0
   -1.5856    1.6878    0.4916 C   0  0  0  0  0  0  0  0  0  0  0  0
   -1.1160   -0.6002    0.4661 C   0  0  0  0  0  0  0  0  0  0  0  0
   -5.3404    0.8042   -0.9970 C   0  0  0  0  0  0  0  0  0  0  0  0
   -5.1771   -1.3019    0.1531 C   0  0  0  0  0  0  0  0  0  0  0  0
   -6.6602    0.4878   -1.2762 C   0  0  0  0  0  0  0  0  0  0  0  0
   -6.5042   -1.5240   -0.1774 C   0  0  0  0  0  0  0  0  0  0  0  0
    6.9588    0.4966   -2.4873 C   0  0  0  0  0  0  0  0  0  0  0  0
    2.9663   -0.4700    2.9650 H   0  0  0  0  0  0  0  0  0  0  0  0
    3.0266    1.1591    2.3079 H   0  0  0  0  0  0  0  0  0  0  0  0
    4.3514    1.6283    0.3821 H   0  0  0  0  0  0  0  0  0  0  0  0
    0.9871   -0.8871    1.9011 H   0  0  0  0  0  0  0  0  0  0  0  0
    3.4237   -2.4586    1.3872 H   0  0  0  0  0  0  0  0  0  0  0  0
    4.9995   -3.2381   -0.3470 H   0  0  0  0  0  0  0  0  0  0  0  0
    6.2374   -1.6631   -1.7001 H   0  0  0  0  0  0  0  0  0  0  0  0
   -1.3264    2.7352    0.6102 H   0  0  0  0  0  0  0  0  0  0  0  0
   -0.4738   -1.4718    0.5319 H   0  0  0  0  0  0  0  0  0  0  0  0
   -4.9302    1.7419   -1.3578 H   0  0  0  0  0  0  0  0  0  0  0  0
   -4.6411   -2.0473    0.7318 H   0  0  0  0  0  0  0  0  0  0  0  0
   -7.2866    1.1684   -1.8434 H   0  0  0  0  0  0  0  0  0  0  0  0
   -7.0083   -2.4345    0.1295 H   0  0  0  0  0  0  0  0  0  0  0  0
    7.7699   -0.0798   -2.0295 H   0  0  0  0  0  0  0  0  0  0  0  0
    6.4236   -0.0756   -3.2526 H   0  0  0  0  0  0  0  0  0  0  0  0
    7.4199    1.3519   -2.9919 H   0  0  0  0  0  0  0  0  0  0  0  0
  1 11  1  0  0  0  0
  1 24  1  0  0  0  0
  2 12  2  0  0  0  0
  3  7  1  0  0  0  0
  3 12  1  0  0  0  0
  3 28  1  0  0  0  0
  4 16  1  0  0  0  0
  4 18  2  0  0  0  0
  5 16  2  0  0  0  0
  5 19  1  0  0  0  0
  6 22  2  0  0  0  0
  6 23  1  0  0  0  0
  7  8  1  0  0  0  0
  7 25  1  0  0  0  0
  7 26  1  0  0  0  0
  8  9  2  0  0  0  0
  8 10  1  0  0  0  0
  9 11  1  0  0  0  0
  9 27  1  0  0  0  0
 10 14  2  0  0  0  0
 10 29  1  0  0  0  0
 11 15  2  0  0  0  0
 12 13  1  0  0  0  0
 13 18  1  0  0  0  0
 13 19  2  0  0  0  0
 14 15  1  0  0  0  0
 14 30  1  0  0  0  0
 15 31  1  0  0  0  0
 16 17  1  0  0  0  0
 17 20  2  0  0  0  0
 17 21  1  0  0  0  0
 18 32  1  0  0  0  0
 19 33  1  0  0  0  0
 20 22  1  0  0  0  0
 20 34  1  0  0  0  0
 21 23  2  0  0  0  0
 21 35  1  0  0  0  0
 22 36  1  0  0  0  0
 23 37  1  0  0  0  0
 24 38  1  0  0  0  0
 24 39  1  0  0  0  0
 24 40  1  0  0  0  0
M  END
> <PUBCHEM_COMPOUND_CID>
49830506

> <PUBCHEM_CONFORMER_RMSD>
0.8

> <PUBCHEM_CONFORMER_DIVERSEORDER>
1
8
16
12
7
10
15
13
6
20
24
4
3
18
14
27
22
9
2
25
17
21
23
5
26
11
19

> <PUBCHEM_MMFF94_PARTIAL_CHARGES>
34
1 -0.36
10 -0.15
11 0.08
12 0.54
13 0.09
14 -0.15
15 -0.15
16 0.62
18 0.16
19 0.16
2 -0.57
20 -0.15
21 -0.15
22 0.16
23 0.16
24 0.28
27 0.15
28 0.37
29 0.15
3 -0.73
30 0.15
31 0.15
32 0.15
33 0.15
34 0.15
35 0.15
36 0.15
37 0.15
4 -0.62
5 -0.62
6 -0.62
7 0.44
8 -0.14
9 -0.15

> <PUBCHEM_EFFECTIVE_ROTOR_COUNT>
6

> <PUBCHEM_PHARMACOPHORE_FEATURES>
9
1 1 acceptor
1 2 acceptor
1 3 donor
1 4 acceptor
1 6 acceptor
3 4 5 16 cation
6 4 5 13 16 18 19 rings
6 6 17 20 21 22 23 rings
6 8 9 10 11 14 15 rings

> <PUBCHEM_HEAVY_ATOM_COUNT>
24

> <PUBCHEM_ATOM_DEF_STEREO_COUNT>
0

> <PUBCHEM_ATOM_UDEF_STEREO_COUNT>
0

> <PUBCHEM_BOND_DEF_STEREO_COUNT>
0

> <PUBCHEM_BOND_UDEF_STEREO_COUNT>
0

> <PUBCHEM_ISOTOPIC_ATOM_COUNT>
0

> <PUBCHEM_COMPONENT_COUNT>
1

> <PUBCHEM_CACTVS_TAUTO_COUNT>
2

> <PUBCHEM_CONFORMER_ID>
02F85A6A00000001

> <PUBCHEM_MMFF94_ENERGY>
75.108

> <PUBCHEM_FEATURE_SELFOVERLAP>
45.672

> <PUBCHEM_SHAPE_FINGERPRINT>
10316853 100 15698002946617443556
10319926 262 12319461012809198025
10554248 39 16590242261829702859
10666366 153 17060340695941966469
10692045 39 10880002354187935716
11524674 6 16200426992822620535
11638347 137 15267342959980886343
11991303 11 17271187322833910481
12166972 35 17203325645856200121
12236239 1 17530960272352731195
125118 31 11674868958272217759
13533116 47 15338830997730575474
13668630 136 17346880074343298855
13673619 4 17203892946632701312
13685833 64 16343986901497818034
13782708 43 16917339342903486869
14251764 18 11959724980503419888
14251764 30 16128383632195222788
14347332 77 18201433636723383817
14347424 109 12751233701704281682
14528608 73 17240481394711162490
14617045 38 17988926677895282662
14681490 219 17240201036336902604
14931854 50 18335714827750642526
15183329 4 18260267434468238837
15348495 7 11311760804785728879
15475509 35 14404911237684222462
16994733 274 15357688678904197621
18222031 100 18131626790110659144
2026 5 16987174725812165070
20715895 44 15430326858231503292
21150785 3 17530964709249113631
21267235 1 18411979192216022515
21298829 104 16370730326777786308
21365058 113 17918276488748066561
21585481 151 12607413187055773884
21682296 61 17774723078499934031
2215653 11 18272643554635680691
2297311 6 18272651251523199281
23016692 55 18131354107005765016
2303208 19 18130781287618482907
23516275 100 16298676100405974980
23522609 53 18127720195190884304
23559900 14 18338790221623798097
2748736 6 11963389643958268911
2767999 5 13695587758383507334
2838139 119 12757148012887810063
2916195 48 7853572435590833891
3004659 81 18260823749193144770
312425 54 12391503179408923876
3472631 163 16660653989960508670
34797466 226 17386007251826325447
3663271 9 11527652094737560654
3680242 22 9943524137150912134
3886686 26 11883791517572317404
4072396 5 10015866500336590072
445580 126 11314301750656766663
465052 167 17346597469900802964
54039377 194 15625958495870726068
54076057 127 16271358746961571074
543368 44 15936408944882451957
59755656 215 18060415803147118159
86090 222 15769508568743717542
960060 61 18411700972360253050
9980921 221 18198906916475867333

> <PUBCHEM_SHAPE_MULTIPOLES>
462.25
20.54
1.75
1.61
7.87
0.25
-0.32
4.48
-12.98
-0.53
0.07
-2.71
-0.32
-0.52

> <PUBCHEM_SHAPE_SELFOVERLAP>
1004.597

> <PUBCHEM_SHAPE_VOLUME>
248.1

> <PUBCHEM_COORDINATE_TYPE>
2
5
10

$$$$
