49831015
  -OEChem-10052115183D

 27 29  0     0  0  0  0  0  0999 V2000
    3.4345   -1.0170   -0.1800 O   0  0  0  0  0  0  0  0  0  0  0  0
   -3.9456   -0.2319   -1.8555 O   0  0  0  0  0  0  0  0  0  0  0  0
    2.6123   -2.1317   -0.0686 N   0  0  0  0  0  0  0  0  0  0  0  0
    0.2515   -2.4003    0.1791 N   0  0  0  0  0  0  0  0  0  0  0  0
    0.3772    0.7762    0.0840 C   0  0  0  0  0  0  0  0  0  0  0  0
    1.3436   -0.2377    0.0120 C   0  0  0  0  0  0  0  0  0  0  0  0
   -1.0203    0.4511    0.2330 C   0  0  0  0  0  0  0  0  0  0  0  0
    2.6750    0.1115   -0.1318 C   0  0  0  0  0  0  0  0  0  0  0  0
    0.8082    2.1082    0.0062 C   0  0  0  0  0  0  0  0  0  0  0  0
    1.3729   -1.6452    0.0453 C   0  0  0  0  0  0  0  0  0  0  0  0
    3.1379    1.4215   -0.2121 C   0  0  0  0  0  0  0  0  0  0  0  0
    2.1636    2.4223   -0.1392 C   0  0  0  0  0  0  0  0  0  0  0  0
   -1.8167    0.2636   -0.8967 C   0  0  0  0  0  0  0  0  0  0  0  0
   -1.5755    0.3248    1.5065 C   0  0  0  0  0  0  0  0  0  0  0  0
   -3.1683   -0.0501   -0.7530 C   0  0  0  0  0  0  0  0  0  0  0  0
   -2.9270    0.0113    1.6502 C   0  0  0  0  0  0  0  0  0  0  0  0
   -3.7234   -0.1765    0.5205 C   0  0  0  0  0  0  0  0  0  0  0  0
    0.0871    2.9218    0.0582 H   0  0  0  0  0  0  0  0  0  0  0  0
    4.1896    1.6550   -0.3246 H   0  0  0  0  0  0  0  0  0  0  0  0
    2.4664    3.4650   -0.1966 H   0  0  0  0  0  0  0  0  0  0  0  0
   -1.3939    0.3596   -1.8946 H   0  0  0  0  0  0  0  0  0  0  0  0
   -0.9687    0.4672    2.3977 H   0  0  0  0  0  0  0  0  0  0  0  0
   -3.3592   -0.0871    2.6418 H   0  0  0  0  0  0  0  0  0  0  0  0
   -4.7749   -0.4205    0.6460 H   0  0  0  0  0  0  0  0  0  0  0  0
   -0.6862   -2.0276    0.2652 H   0  0  0  0  0  0  0  0  0  0  0  0
    0.3012   -3.4144    0.2001 H   0  0  0  0  0  0  0  0  0  0  0  0
   -4.8517   -0.4419   -1.5709 H   0  0  0  0  0  0  0  0  0  0  0  0
  1  3  1  0  0  0  0
  1  8  1  0  0  0  0
  2 15  1  0  0  0  0
  2 27  1  0  0  0  0
  3 10  2  0  0  0  0
  4 10  1  0  0  0  0
  4 25  1  0  0  0  0
  4 26  1  0  0  0  0
  5  6  2  0  0  0  0
  5  7  1  0  0  0  0
  5  9  1  0  0  0  0
  6  8  1  0  0  0  0
  6 10  1  0  0  0  0
  7 13  2  0  0  0  0
  7 14  1  0  0  0  0
  8 11  2  0  0  0  0
  9 12  2  0  0  0  0
  9 18  1  0  0  0  0
 11 12  1  0  0  0  0
 11 19  1  0  0  0  0
 12 20  1  0  0  0  0
 13 15  1  0  0  0  0
 13 21  1  0  0  0  0
 14 16  2  0  0  0  0
 14 22  1  0  0  0  0
 15 17  2  0  0  0  0
 16 17  1  0  0  0  0
 16 23  1  0  0  0  0
 17 24  1  0  0  0  0
M  END
> <PUBCHEM_COMPOUND_CID>
49831015

> <PUBCHEM_CONFORMER_RMSD>
0.6

> <PUBCHEM_CONFORMER_DIVERSEORDER>
1
2

> <PUBCHEM_MMFF94_PARTIAL_CHARGES>
24
1 -0.02
10 0.37
11 -0.15
12 -0.15
13 -0.15
14 -0.15
15 0.08
16 -0.15
17 -0.15
18 0.15
19 0.15
2 -0.53
20 0.15
21 0.15
22 0.15
23 0.15
24 0.15
25 0.4
26 0.4
27 0.45
3 -0.41
4 -0.88
8 0.14
9 -0.15

> <PUBCHEM_EFFECTIVE_ROTOR_COUNT>
1

> <PUBCHEM_PHARMACOPHORE_FEATURES>
6
1 2 donor
1 4 donor
3 3 4 10 cation
5 1 3 6 8 10 rings
6 5 6 8 9 11 12 rings
6 7 13 14 15 16 17 rings

> <PUBCHEM_HEAVY_ATOM_COUNT>
17

> <PUBCHEM_ATOM_DEF_STEREO_COUNT>
0

> <PUBCHEM_ATOM_UDEF_STEREO_COUNT>
0

> <PUBCHEM_BOND_DEF_STEREO_COUNT>
0

> <PUBCHEM_BOND_UDEF_STEREO_COUNT>
0

> <PUBCHEM_ISOTOPIC_ATOM_COUNT>
0

> <PUBCHEM_COMPONENT_COUNT>
1

> <PUBCHEM_CACTVS_TAUTO_COUNT>
6

> <PUBCHEM_CONFORMER_ID>
02F85C6700000001

> <PUBCHEM_MMFF94_ENERGY>
44.5907

> <PUBCHEM_FEATURE_SELFOVERLAP>
30.546

> <PUBCHEM_SHAPE_FINGERPRINT>
10967382 1 18410298051067810672
11471102 20 18409449193367510324
11582403 64 16815398259663022973
11725454 13 17100827037089665813
12236239 1 17775291568712961433
12553582 1 18122353380298965810
12596599 1 17989215827856991887
13140716 1 18266461104180058288
13296908 3 17821734939769921513
13538477 17 17346601867899990801
13862211 1 18410571748397123734
14251717 144 18411416228238209758
15219456 202 18040719190375048809
15309172 13 18264497341388525457
15375462 189 17917715725164113145
16752209 62 16774070770528694421
16945 1 18410299137694621000
1813 80 17914074009635897478
18186145 218 18341338876153854660
18219364 16 18261396697170619033
19049666 15 17822287925478525665
19422 9 17775289360962556367
200 152 18272365365330004917
20201158 50 18187086117892331411
20279233 1 17821445785433896577
20361792 2 18269276772378984999
204376 136 18121503711514354816
20645477 70 18408879629496717311
21639500 275 18339079396944003265
21730867 7 18261679250163132376
22112679 90 17346604066802070065
2255824 54 18342183297184677668
22802520 49 18040712511738145365
232386 152 16702013184595338997
2334 1 17762061334432827272
23388829 49 18201159849484782448
23402539 116 18269276751574496726
23419403 2 14929791673902326930
23557571 272 17095528430773601605
23559900 14 16732978692198623010
23598291 2 18060146409686466725
23728640 28 15812836653497030803
25 1 18336549416514823172
2748010 2 18049737505263497720
350125 39 17544770378953163744
474 4 17628907121782044824
581208 293 18412542136998906536
6049 1 17676216775041886493
633830 44 18056504930165258596
7615 1 17918276441671646257
77492 1 17775291568649677409
81228 2 17472415448613446376
8272917 22 18341061731068446809
9981440 41 15978048798646464792

> <PUBCHEM_SHAPE_MULTIPOLES>
328.15
6.26
2.13
1.17
2.88
0.33
0.01
0.12
-0.9
-2.45
-0.01
1.61
-0.05
-0.11

> <PUBCHEM_SHAPE_SELFOVERLAP>
738.624

> <PUBCHEM_SHAPE_VOLUME>
175.6

> <PUBCHEM_COORDINATE_TYPE>
2
5
10

$$$$
