16046126
  -OEChem-10062121563D

 51 56  0     1  0  0  0  0  0999 V2000
   -2.1231    1.4876    0.9231 O   0  0  0  0  0  0  0  0  0  0  0  0
    4.9386    0.9538   -0.2353 O   0  0  0  0  0  0  0  0  0  0  0  0
   -0.3057   -4.2004   -0.6991 O   0  0  0  0  0  0  0  0  0  0  0  0
    0.0448    2.7341   -0.4998 N   0  0  1  0  0  0  0  0  0  0  0  0
    2.6500    1.1651   -0.7738 N   0  0  0  0  0  0  0  0  0  0  0  0
    1.5471    0.3428   -0.6350 N   0  0  0  0  0  0  0  0  0  0  0  0
   -0.8371   -0.8662    0.3835 N   0  0  0  0  0  0  0  0  0  0  0  0
   -2.2997   -3.0563   -0.5396 N   0  0  0  0  0  0  0  0  0  0  0  0
   -0.0012    3.6635    0.6389 C   0  0  1  0  0  0  0  0  0  0  0  0
   -2.1911    2.7085    0.1685 C   0  0  1  0  0  0  0  0  0  0  0  0
   -1.4986    3.7987    0.9823 C   0  0  0  0  0  0  0  0  0  0  0  0
   -1.3052    2.6558   -1.0687 C   0  0  0  0  0  0  0  0  0  0  0  0
    1.0641    3.0089   -1.5173 C   0  0  0  0  0  0  0  0  0  0  0  0
    0.7668    3.1023    1.8355 C   0  0  0  0  0  0  0  0  0  0  0  0
    2.4829    2.5681   -1.1186 C   0  0  0  0  0  0  0  0  0  0  0  0
   -2.8751    0.4509    0.4314 C   0  0  0  0  0  0  0  0  0  0  0  0
    2.0050   -0.8576   -0.1128 C   0  0  0  0  0  0  0  0  0  0  0  0
    3.7995    0.5334   -0.3161 C   0  0  0  0  0  0  0  0  0  0  0  0
    3.3758   -0.8038    0.1218 C   0  0  0  0  0  0  0  0  0  0  0  0
   -2.2204   -0.7687    0.1934 C   0  0  0  0  0  0  0  0  0  0  0  0
    1.2723   -1.9757    0.2583 C   0  0  0  0  0  0  0  0  0  0  0  0
   -4.2569    0.5565    0.2557 C   0  0  0  0  0  0  0  0  0  0  0  0
   -0.2039   -1.9642    0.1019 C   0  0  0  0  0  0  0  0  0  0  0  0
   -2.9638   -1.8569   -0.2615 C   0  0  0  0  0  0  0  0  0  0  0  0
    4.0833   -1.8473    0.6778 C   0  0  0  0  0  0  0  0  0  0  0  0
    1.9588   -3.0522    0.8324 C   0  0  0  0  0  0  0  0  0  0  0  0
   -0.9337   -3.1923   -0.4101 C   0  0  0  0  0  0  0  0  0  0  0  0
   -4.9859   -0.5464   -0.1920 C   0  0  0  0  0  0  0  0  0  0  0  0
    3.3544   -2.9869    1.0297 C   0  0  0  0  0  0  0  0  0  0  0  0
   -4.3420   -1.7551   -0.4548 C   0  0  0  0  0  0  0  0  0  0  0  0
    0.3929    4.6547    0.3829 H   0  0  0  0  0  0  0  0  0  0  0  0
   -3.2234    2.9959   -0.0548 H   0  0  0  0  0  0  0  0  0  0  0  0
   -1.8523    4.7802    0.6420 H   0  0  0  0  0  0  0  0  0  0  0  0
   -1.7036    3.7087    2.0542 H   0  0  0  0  0  0  0  0  0  0  0  0
   -1.4340    1.7323   -1.6408 H   0  0  0  0  0  0  0  0  0  0  0  0
   -1.5114    3.5155   -1.7187 H   0  0  0  0  0  0  0  0  0  0  0  0
    1.0680    4.0719   -1.7883 H   0  0  0  0  0  0  0  0  0  0  0  0
    0.8100    2.4614   -2.4353 H   0  0  0  0  0  0  0  0  0  0  0  0
    0.4105    2.1036    2.1122 H   0  0  0  0  0  0  0  0  0  0  0  0
    1.8387    3.0308    1.6375 H   0  0  0  0  0  0  0  0  0  0  0  0
    0.6422    3.7530    2.7081 H   0  0  0  0  0  0  0  0  0  0  0  0
    3.1665    2.7622   -1.9543 H   0  0  0  0  0  0  0  0  0  0  0  0
    2.8661    3.1660   -0.2855 H   0  0  0  0  0  0  0  0  0  0  0  0
    0.7646    0.3997   -1.2699 H   0  0  0  0  0  0  0  0  0  0  0  0
   -4.7832    1.4793    0.4810 H   0  0  0  0  0  0  0  0  0  0  0  0
    5.1512   -1.7906    0.8502 H   0  0  0  0  0  0  0  0  0  0  0  0
    1.4306   -3.9414    1.1660 H   0  0  0  0  0  0  0  0  0  0  0  0
    3.8669   -3.8318    1.4830 H   0  0  0  0  0  0  0  0  0  0  0  0
   -6.0602   -0.4644   -0.3307 H   0  0  0  0  0  0  0  0  0  0  0  0
   -2.8439   -3.8444   -0.8781 H   0  0  0  0  0  0  0  0  0  0  0  0
   -4.9204   -2.6045   -0.8078 H   0  0  0  0  0  0  0  0  0  0  0  0
  1 10  1  0  0  0  0
  1 16  1  0  0  0  0
  2 18  2  0  0  0  0
  3 27  2  0  0  0  0
  4  9  1  0  0  0  0
  4 12  1  0  0  0  0
  4 13  1  0  0  0  0
  5  6  1  0  0  0  0
  5 15  1  0  0  0  0
  5 18  1  0  0  0  0
  6 17  1  0  0  0  0
  6 44  1  0  0  0  0
  7 20  1  0  0  0  0
  7 23  2  0  0  0  0
  8 24  1  0  0  0  0
  8 27  1  0  0  0  0
  8 50  1  0  0  0  0
  9 11  1  0  0  0  0
  9 14  1  0  0  0  0
  9 31  1  0  0  0  0
 10 11  1  0  0  0  0
 10 12  1  0  0  0  0
 10 32  1  0  0  0  0
 11 33  1  0  0  0  0
 11 34  1  0  0  0  0
 12 35  1  0  0  0  0
 12 36  1  0  0  0  0
 13 15  1  0  0  0  0
 13 37  1  0  0  0  0
 13 38  1  0  0  0  0
 14 39  1  0  0  0  0
 14 40  1  0  0  0  0
 14 41  1  0  0  0  0
 15 42  1  0  0  0  0
 15 43  1  0  0  0  0
 16 20  1  0  0  0  0
 16 22  2  0  0  0  0
 17 19  2  0  0  0  0
 17 21  1  0  0  0  0
 18 19  1  0  0  0  0
 19 25  1  0  0  0  0
 20 24  2  0  0  0  0
 21 23  1  0  0  0  0
 21 26  2  0  0  0  0
 22 28  1  0  0  0  0
 22 45  1  0  0  0  0
 23 27  1  0  0  0  0
 24 30  1  0  0  0  0
 25 29  2  0  0  0  0
 25 46  1  0  0  0  0
 26 29  1  0  0  0  0
 26 47  1  0  0  0  0
 28 30  2  0  0  0  0
 28 49  1  0  0  0  0
 29 48  1  0  0  0  0
 30 51  1  0  0  0  0
M  END
> <PUBCHEM_COMPOUND_CID>
16046126

> <PUBCHEM_CONFORMER_RMSD>
0.6

> <PUBCHEM_CONFORMER_DIVERSEORDER>
1
5
2
4
3

> <PUBCHEM_MMFF94_PARTIAL_CHARGES>
36
1 -0.36
10 0.28
12 0.27
13 0.27
15 0.3
16 0.08
17 0.1
18 0.54
19 0.09
2 -0.57
20 0.18
21 0.09
22 -0.15
23 0.36
24 0.12
25 -0.15
26 -0.15
27 0.63
28 -0.15
29 -0.15
3 -0.57
30 -0.15
4 -0.81
44 0.4
45 0.15
46 0.15
47 0.15
48 0.15
49 0.15
5 -0.34
50 0.37
51 0.15
6 -0.52
7 -0.63
8 -0.55
9 0.27

> <PUBCHEM_EFFECTIVE_ROTOR_COUNT>
1.2

> <PUBCHEM_PHARMACOPHORE_FEATURES>
12
1 1 acceptor
1 2 acceptor
1 3 acceptor
1 4 cation
1 6 donor
1 7 acceptor
1 8 donor
5 4 9 10 11 12 rings
5 5 6 17 18 19 rings
6 16 20 22 24 28 30 rings
6 17 19 21 25 26 29 rings
6 7 8 20 23 24 27 rings

> <PUBCHEM_HEAVY_ATOM_COUNT>
30

> <PUBCHEM_ATOM_DEF_STEREO_COUNT>
2

> <PUBCHEM_ATOM_UDEF_STEREO_COUNT>
0

> <PUBCHEM_BOND_DEF_STEREO_COUNT>
0

> <PUBCHEM_BOND_UDEF_STEREO_COUNT>
0

> <PUBCHEM_ISOTOPIC_ATOM_COUNT>
0

> <PUBCHEM_COMPONENT_COUNT>
1

> <PUBCHEM_CACTVS_TAUTO_COUNT>
10

> <PUBCHEM_CONFORMER_ID>
00F4D82E00000001

> <PUBCHEM_MMFF94_ENERGY>
111.6189

> <PUBCHEM_FEATURE_SELFOVERLAP>
61.031

> <PUBCHEM_SHAPE_FINGERPRINT>
1100329 8 18194405721348537549
11370993 70 17331390974669763408
11513181 2 18200882747054117030
12156800 1 16594164176107084349
12422481 6 17903098658977423673
12788726 201 18342185431466893180
13122387 1 18194685864917041415
13140716 1 18120942973062441440
13642711 20 15100692554648937070
138480 1 14808538274683984185
14081887 123 18341600504598653576
14114207 22 8419334209284938328
14117953 113 17977663117856080757
14394314 77 18412831287177920089
14931854 50 18050294957310809917
14955137 171 18196680512898092819
15297060 5 18059869319660245683
15927050 60 17621602039899662463
18336668 15 18188489206488558076
19930381 70 18192429903565097411
20642791 178 17898861406776421309
20715895 44 17902503788890121173
20775438 99 17331342978927540543
20905425 154 18341336617053889044
21857420 4 15905117045102778974
22113638 7 18337391668133429461
23559900 14 17479179012962151873
350125 39 18266177236532179506
3680242 22 18337403651661806529
392239 28 18272085033094787720
463206 1 18194969771030111345
474 4 18114461283450634578
57527585 103 17464009789825338411
6287921 2 16830099395793246585
653340 110 18268419149558100488
84936 182 17833267897654101254

> <PUBCHEM_SHAPE_MULTIPOLES>
574.87
7.65
5.81
1.13
0.12
1.17
-0.1
-2.95
-0.16
0.22
-0.12
-0.29
0.82
-1.71

> <PUBCHEM_SHAPE_SELFOVERLAP>
1294.108

> <PUBCHEM_SHAPE_VOLUME>
300.7

> <PUBCHEM_COORDINATE_TYPE>
2
5
10

$$$$
