49830820
  -OEChem-10052115183D

 30 32  0     0  0  0  0  0  0999 V2000
    0.0908   -2.9569    0.7958 O   0  0  0  0  0  0  0  0  0  0  0  0
    1.2071   -2.4636   -1.1218 O   0  0  0  0  0  0  0  0  0  0  0  0
    0.4902    0.3779    0.0278 N   0  0  0  0  0  0  0  0  0  0  0  0
   -0.3014    1.4632    0.1293 N   0  0  0  0  0  0  0  0  0  0  0  0
   -5.2048    1.3426    0.0953 N   0  0  0  0  0  0  0  0  0  0  0  0
   -1.4975   -0.4582   -0.0630 C   0  0  0  0  0  0  0  0  0  0  0  0
   -0.1769   -0.8064   -0.0909 C   0  0  0  0  0  0  0  0  0  0  0  0
   -1.5541    0.9772    0.0764 C   0  0  0  0  0  0  0  0  0  0  0  0
    1.8767    0.5383    0.0502 C   0  0  0  0  0  0  0  0  0  0  0  0
   -2.5690   -1.3375   -0.1532 C   0  0  0  0  0  0  0  0  0  0  0  0
   -2.7928    1.6418    0.1351 C   0  0  0  0  0  0  0  0  0  0  0  0
   -3.9036    0.7742    0.0461 C   0  0  0  0  0  0  0  0  0  0  0  0
   -3.7947   -0.6456   -0.0913 C   0  0  0  0  0  0  0  0  0  0  0  0
    2.6877   -0.4744    0.5625 C   0  0  0  0  0  0  0  0  0  0  0  0
    2.4513    1.7104   -0.4409 C   0  0  0  0  0  0  0  0  0  0  0  0
    0.4330   -2.0956   -0.2136 C   0  0  0  0  0  0  0  0  0  0  0  0
    4.0733   -0.3149    0.5837 C   0  0  0  0  0  0  0  0  0  0  0  0
    3.8368    1.8700   -0.4199 C   0  0  0  0  0  0  0  0  0  0  0  0
    4.6479    0.8573    0.0924 C   0  0  0  0  0  0  0  0  0  0  0  0
   -2.5092   -2.4115   -0.2602 H   0  0  0  0  0  0  0  0  0  0  0  0
   -2.8847    2.7155    0.2389 H   0  0  0  0  0  0  0  0  0  0  0  0
   -4.7093   -1.2366   -0.1535 H   0  0  0  0  0  0  0  0  0  0  0  0
    2.3037   -1.3648    1.0459 H   0  0  0  0  0  0  0  0  0  0  0  0
    1.8481    2.5136   -0.8570 H   0  0  0  0  0  0  0  0  0  0  0  0
    4.7042   -1.0937    1.0022 H   0  0  0  0  0  0  0  0  0  0  0  0
    4.2847    2.7820   -0.8036 H   0  0  0  0  0  0  0  0  0  0  0  0
    5.7264    0.9835    0.1130 H   0  0  0  0  0  0  0  0  0  0  0  0
   -6.0189    0.7457    0.0346 H   0  0  0  0  0  0  0  0  0  0  0  0
   -5.3138    2.3433    0.1928 H   0  0  0  0  0  0  0  0  0  0  0  0
    0.5228   -3.8310    0.6873 H   0  0  0  0  0  0  0  0  0  0  0  0
  1 16  1  0  0  0  0
  1 30  1  0  0  0  0
  2 16  2  0  0  0  0
  3  4  1  0  0  0  0
  3  7  1  0  0  0  0
  3  9  1  0  0  0  0
  4  8  2  0  0  0  0
  5 12  1  0  0  0  0
  5 28  1  0  0  0  0
  5 29  1  0  0  0  0
  6  7  2  0  0  0  0
  6  8  1  0  0  0  0
  6 10  1  0  0  0  0
  7 16  1  0  0  0  0
  8 11  1  0  0  0  0
  9 14  2  0  0  0  0
  9 15  1  0  0  0  0
 10 13  2  0  0  0  0
 10 20  1  0  0  0  0
 11 12  2  0  0  0  0
 11 21  1  0  0  0  0
 12 13  1  0  0  0  0
 13 22  1  0  0  0  0
 14 17  1  0  0  0  0
 14 23  1  0  0  0  0
 15 18  2  0  0  0  0
 15 24  1  0  0  0  0
 17 19  2  0  0  0  0
 17 25  1  0  0  0  0
 18 19  1  0  0  0  0
 18 26  1  0  0  0  0
 19 27  1  0  0  0  0
M  END
> <PUBCHEM_COMPOUND_CID>
49830820

> <PUBCHEM_CONFORMER_RMSD>
0.6

> <PUBCHEM_CONFORMER_DIVERSEORDER>
1
2
3

> <PUBCHEM_MMFF94_PARTIAL_CHARGES>
29
1 -0.65
10 -0.15
11 -0.15
12 0.1
13 -0.15
14 -0.15
15 -0.15
16 0.81
17 -0.15
18 -0.15
19 -0.15
2 -0.57
20 0.15
21 0.15
22 0.15
23 0.15
24 0.15
25 0.15
26 0.15
27 0.15
28 0.4
29 0.4
3 0.59
30 0.5
4 -0.71
5 -0.9
7 -0.24
8 0.29
9 -0.02

> <PUBCHEM_EFFECTIVE_ROTOR_COUNT>
2

> <PUBCHEM_PHARMACOPHORE_FEATURES>
9
1 1 acceptor
1 2 acceptor
1 4 acceptor
1 5 cation
1 5 donor
3 1 2 16 anion
5 3 4 6 7 8 rings
6 6 8 10 11 12 13 rings
6 9 14 15 17 18 19 rings

> <PUBCHEM_HEAVY_ATOM_COUNT>
19

> <PUBCHEM_ATOM_DEF_STEREO_COUNT>
0

> <PUBCHEM_ATOM_UDEF_STEREO_COUNT>
0

> <PUBCHEM_BOND_DEF_STEREO_COUNT>
0

> <PUBCHEM_BOND_UDEF_STEREO_COUNT>
0

> <PUBCHEM_ISOTOPIC_ATOM_COUNT>
0

> <PUBCHEM_COMPONENT_COUNT>
1

> <PUBCHEM_CACTVS_TAUTO_COUNT>
2

> <PUBCHEM_CONFORMER_ID>
02F85BA400000001

> <PUBCHEM_MMFF94_ENERGY>
82.2718

> <PUBCHEM_FEATURE_SELFOVERLAP>
45.86

> <PUBCHEM_SHAPE_FINGERPRINT>
10062212 137 18340757213154648535
10411042 1 17258216800994487486
10616163 171 18339643442240828535
10967382 1 18411136892171062728
11132069 177 18412541020048862336
11578080 2 16736351864443723662
12173636 292 18268143343663660500
12236239 1 18187362160352753352
12592029 89 18334858277452769818
12644460 14 18190184485983072291
12788726 201 17756982681545135874
13140716 1 18340208613098569585
13380535 76 18411139134170579367
13583140 156 16878214350962773227
14790565 3 18411144649141319713
15196674 1 18410574006631575386
15230672 131 13652512806515812971
15309172 13 18409737282609525360
15536298 74 18201159832310259454
16752209 62 18198051671989547974
16945 1 18265334993265786949
18186145 218 18335416868114599204
19784866 170 18335144167972319361
19784866 9 18411699846709718977
200 152 18131625699663693285
20510252 161 18272938253611221096
20645476 183 17970361518628160702
21267235 1 18336554888186964394
21421861 104 17971753264120416891
21524375 3 18412261748575023170
23366157 5 18116720603694045806
23402539 116 18272363213509360820
23463225 33 18408037399210347368
23559900 14 18270963414890355198
25147074 1 18200298928487249047
2748010 2 17473538049711059932
335352 9 18410011005755900758
34934 24 18343015559057285413
42630746 31 18341333284533501783
4340502 62 17530973445613449489
43471831 8 18408880711696957810
474 4 18408324358791671425
474229 33 18338517555472088859
5104073 3 18408321120207281776
58051976 378 18340767057277693949
59755656 215 18270123405228249622
6138700 20 18267872671226609646
633830 44 18342176661101301812
69090 78 18337386145111285672
7364860 26 18127693733817751583
81228 2 17690258826654583162
81539 233 18409728422144864639
8272917 22 18339927000223553519
9709674 26 18411425020110643990
9999458 23 17967253066360702418

> <PUBCHEM_SHAPE_MULTIPOLES>
364.33
8.53
2.46
0.74
0.77
1.31
-0.03
-4.32
0.42
-0.11
-0.16
-0.25
0.18
-0.35

> <PUBCHEM_SHAPE_SELFOVERLAP>
813.878

> <PUBCHEM_SHAPE_VOLUME>
194.1

> <PUBCHEM_COORDINATE_TYPE>
2
5
10

$$$$
