24905155
  -OEChem-10052115163D

 39 41  0     0  0  0  0  0  0999 V2000
    5.7623    0.8165    0.9481 O   0  0  0  0  0  0  0  0  0  0  0  0
   -2.5256    1.0253   -0.0344 N   0  0  0  0  0  0  0  0  0  0  0  0
   -1.2349    1.4074   -0.0358 N   0  0  0  0  0  0  0  0  0  0  0  0
   -3.8575   -0.9961    0.0107 N   0  0  0  0  0  0  0  0  0  0  0  0
   -2.4610   -2.9953    0.0737 N   0  0  0  0  0  0  0  0  0  0  0  0
   -0.0760   -2.9026    0.0886 N   0  0  0  0  0  0  0  0  0  0  0  0
   -3.5646    2.0271   -0.0681 C   0  0  0  0  0  0  0  0  0  0  0  0
   -2.6936   -0.3271    0.0006 C   0  0  0  0  0  0  0  0  0  0  0  0
   -1.4208   -0.8697    0.0238 C   0  0  0  0  0  0  0  0  0  0  0  0
   -0.5673    0.2490   -0.0003 C   0  0  0  0  0  0  0  0  0  0  0  0
   -3.5022    2.8599   -1.3510 C   0  0  0  0  0  0  0  0  0  0  0  0
   -3.5190    2.9275    1.1689 C   0  0  0  0  0  0  0  0  0  0  0  0
    0.8739    0.2529    0.0091 C   0  0  0  0  0  0  0  0  0  0  0  0
   -1.3253   -2.2568    0.0617 C   0  0  0  0  0  0  0  0  0  0  0  0
    1.5793    0.2227   -1.1939 C   0  0  0  0  0  0  0  0  0  0  0  0
    1.5634    0.2856    1.2212 C   0  0  0  0  0  0  0  0  0  0  0  0
    3.6637    0.2576    0.0274 C   0  0  0  0  0  0  0  0  0  0  0  0
    2.9741    0.2252   -1.1847 C   0  0  0  0  0  0  0  0  0  0  0  0
    2.9583    0.2877    1.2305 C   0  0  0  0  0  0  0  0  0  0  0  0
   -3.6397   -2.3285    0.0478 C   0  0  0  0  0  0  0  0  0  0  0  0
    5.1178    0.2594    0.0369 C   0  0  0  0  0  0  0  0  0  0  0  0
    5.8948   -0.4277   -1.0810 C   0  0  0  0  0  0  0  0  0  0  0  0
   -4.5266    1.5007   -0.0604 H   0  0  0  0  0  0  0  0  0  0  0  0
   -2.5785    3.4463   -1.4092 H   0  0  0  0  0  0  0  0  0  0  0  0
   -4.3461    3.5561   -1.4012 H   0  0  0  0  0  0  0  0  0  0  0  0
   -3.5433    2.2154   -2.2362 H   0  0  0  0  0  0  0  0  0  0  0  0
   -2.5960    3.5165    1.2079 H   0  0  0  0  0  0  0  0  0  0  0  0
   -3.5720    2.3315    2.0868 H   0  0  0  0  0  0  0  0  0  0  0  0
   -4.3633    3.6250    1.1705 H   0  0  0  0  0  0  0  0  0  0  0  0
    1.0565    0.1991   -2.1472 H   0  0  0  0  0  0  0  0  0  0  0  0
    1.0283    0.3079    2.1677 H   0  0  0  0  0  0  0  0  0  0  0  0
    3.4979    0.2139   -2.1365 H   0  0  0  0  0  0  0  0  0  0  0  0
    3.4783    0.3089    2.1847 H   0  0  0  0  0  0  0  0  0  0  0  0
   -4.5288   -2.9499    0.0584 H   0  0  0  0  0  0  0  0  0  0  0  0
    0.7870   -2.3792    0.0804 H   0  0  0  0  0  0  0  0  0  0  0  0
   -0.0517   -3.9132    0.1159 H   0  0  0  0  0  0  0  0  0  0  0  0
    6.0752    0.2829   -1.8912 H   0  0  0  0  0  0  0  0  0  0  0  0
    5.3502   -1.2995   -1.4534 H   0  0  0  0  0  0  0  0  0  0  0  0
    6.8512   -0.7823   -0.6850 H   0  0  0  0  0  0  0  0  0  0  0  0
  1 21  2  0  0  0  0
  2  3  1  0  0  0  0
  2  7  1  0  0  0  0
  2  8  1  0  0  0  0
  3 10  2  0  0  0  0
  4  8  2  0  0  0  0
  4 20  1  0  0  0  0
  5 14  1  0  0  0  0
  5 20  2  0  0  0  0
  6 14  1  0  0  0  0
  6 35  1  0  0  0  0
  6 36  1  0  0  0  0
  7 11  1  0  0  0  0
  7 12  1  0  0  0  0
  7 23  1  0  0  0  0
  8  9  1  0  0  0  0
  9 10  1  0  0  0  0
  9 14  2  0  0  0  0
 10 13  1  0  0  0  0
 11 24  1  0  0  0  0
 11 25  1  0  0  0  0
 11 26  1  0  0  0  0
 12 27  1  0  0  0  0
 12 28  1  0  0  0  0
 12 29  1  0  0  0  0
 13 15  2  0  0  0  0
 13 16  1  0  0  0  0
 15 18  1  0  0  0  0
 15 30  1  0  0  0  0
 16 19  2  0  0  0  0
 16 31  1  0  0  0  0
 17 18  2  0  0  0  0
 17 19  1  0  0  0  0
 17 21  1  0  0  0  0
 18 32  1  0  0  0  0
 19 33  1  0  0  0  0
 20 34  1  0  0  0  0
 21 22  1  0  0  0  0
 22 37  1  0  0  0  0
 22 38  1  0  0  0  0
 22 39  1  0  0  0  0
M  END
> <PUBCHEM_COMPOUND_CID>
24905155

> <PUBCHEM_CONFORMER_RMSD>
0.6

> <PUBCHEM_CONFORMER_DIVERSEORDER>
1
4
6
8
3
5
7
2

> <PUBCHEM_MMFF94_PARTIAL_CHARGES>
26
1 -0.57
10 0.23
13 0.05
14 0.41
15 -0.15
16 -0.15
17 0.09
18 -0.15
19 -0.15
2 0.31
20 0.47
21 0.42
22 0.06
3 -0.71
30 0.15
31 0.15
32 0.15
33 0.15
34 0.15
35 0.4
36 0.4
4 -0.57
5 -0.62
6 -0.9
7 0.26
8 0.11

> <PUBCHEM_EFFECTIVE_ROTOR_COUNT>
3

> <PUBCHEM_PHARMACOPHORE_FEATURES>
10
1 1 acceptor
1 3 acceptor
1 6 cation
1 6 donor
3 2 4 8 cation
3 4 5 20 cation
3 7 11 12 hydrophobe
5 2 3 8 9 10 rings
6 13 15 16 17 18 19 rings
6 4 5 8 9 14 20 rings

> <PUBCHEM_HEAVY_ATOM_COUNT>
22

> <PUBCHEM_ATOM_DEF_STEREO_COUNT>
0

> <PUBCHEM_ATOM_UDEF_STEREO_COUNT>
0

> <PUBCHEM_BOND_DEF_STEREO_COUNT>
0

> <PUBCHEM_BOND_UDEF_STEREO_COUNT>
0

> <PUBCHEM_ISOTOPIC_ATOM_COUNT>
0

> <PUBCHEM_COMPONENT_COUNT>
1

> <PUBCHEM_CACTVS_TAUTO_COUNT>
10

> <PUBCHEM_CONFORMER_ID>
017C05C300000001

> <PUBCHEM_MMFF94_ENERGY>
55.2255

> <PUBCHEM_FEATURE_SELFOVERLAP>
51.025

> <PUBCHEM_SHAPE_FINGERPRINT>
10165383 225 18268157457248546041
10319926 262 18269817810437904544
10411042 1 17905890628074681987
105312 117 18188482454952884925
11315181 36 18187080698345184628
11796584 16 18270124509731748374
12107183 9 18046336432436479722
12236239 1 17603581958694637154
12390115 104 18270973332191244953
12403259 415 18060421335244096408
12500047 106 18411695465864013324
12616971 3 16950562165206170032
12788726 201 18191885619402387919
13140716 1 18122069964513554115
13583140 156 17989479749834801460
14294032 229 18262514781234775565
14508225 48 18194951062722159301
14790565 3 17621330038961781281
15042514 8 18193283107693881619
16752209 62 18336252527180101043
167882 2 17830164719606073711
16945 1 18410292549547065763
17844677 252 18340493356719407104
200 152 16370997546694613622
20510252 161 18343021129392693145
20554085 129 18055887949744514409
20645477 56 18410860927864590437
20645477 70 16773804667202902660
21033648 29 17489294300967400640
21065201 7 18411415129338596426
21279426 13 18199756852006704686
22224240 67 18269848536703161321
2297311 6 18340214097286282174
23175994 123 17203336636603540200
23402539 116 18340199799561752231
23493267 7 18272086067722333200
23557571 272 18272376386263806132
23559900 14 18341891956763001112
23598291 2 17749398117181395844
2748010 2 18193286187422160087
283562 15 18411415138097628315
312423 11 17896335772917298868
34797466 226 18058183889580776180
350125 39 18409732880690215353
4214541 1 18410856568683580204
5104073 3 18410853231699681450
5265222 85 18198637695525369798
559249 180 18335699395843899154
573450 72 18260820506318327514
59755656 215 18413109446508008151
59755656 520 18200320896854792457
602551 16 18410855499426608162
6327066 14 18042395829839145429
633830 44 17771064887213238173
77492 1 17603583049415785848
81228 2 18337677533167836865
9709674 26 18271814518642286734
9862522 239 17822846455931874373

> <PUBCHEM_SHAPE_MULTIPOLES>
421.98
10.6
3.01
1.12
13.92
0.82
0.03
-3.07
0.51
-5.81
-0.03
0.59
-0.53
0.46

> <PUBCHEM_SHAPE_SELFOVERLAP>
921.497

> <PUBCHEM_SHAPE_VOLUME>
229.5

> <PUBCHEM_COORDINATE_TYPE>
2
5
10

$$$$
