49830696
  -OEChem-10052115183D

 34 35  0     0  0  0  0  0  0999 V2000
   -4.2461    3.2214   -0.2072 Cl  0  0  0  0  0  0  0  0  0  0  0  0
   -3.1404   -2.5269    0.3336 O   0  0  0  0  0  0  0  0  0  0  0  0
    0.1925    1.2931   -0.0685 O   0  0  0  0  0  0  0  0  0  0  0  0
   -1.0142   -0.7042    0.1365 N   0  0  0  0  0  0  0  0  0  0  0  0
    1.2932   -0.7618    0.1178 N   0  0  0  0  0  0  0  0  0  0  0  0
    2.9859    0.9122   -0.0605 N   0  0  0  0  0  0  0  0  0  0  0  0
    4.9308   -1.1013    0.1118 N   0  0  0  0  0  0  0  0  0  0  0  0
    7.7910    0.7139   -0.0909 N   0  0  0  0  0  0  0  0  0  0  0  0
   -2.3433   -0.2748    0.1092 C   0  0  0  0  0  0  0  0  0  0  0  0
   -3.3891   -1.1926    0.2082 C   0  0  0  0  0  0  0  0  0  0  0  0
   -4.9878    0.6121    0.0512 C   0  0  0  0  0  0  0  0  0  0  0  0
   -4.7113   -0.7491    0.1791 C   0  0  0  0  0  0  0  0  0  0  0  0
   -2.6197    1.0863   -0.0190 C   0  0  0  0  0  0  0  0  0  0  0  0
   -3.9419    1.5299   -0.0480 C   0  0  0  0  0  0  0  0  0  0  0  0
   -6.4175    1.0470    0.0241 C   0  0  0  0  0  0  0  0  0  0  0  0
    0.1657    0.0722    0.0493 C   0  0  0  0  0  0  0  0  0  0  0  0
    2.6570   -0.3885    0.0673 C   0  0  0  0  0  0  0  0  0  0  0  0
   -3.0358   -3.2817   -0.8717 C   0  0  0  0  0  0  0  0  0  0  0  0
    3.6123   -1.3775    0.1520 C   0  0  0  0  0  0  0  0  0  0  0  0
    4.3046    1.1883   -0.1008 C   0  0  0  0  0  0  0  0  0  0  0  0
    5.2598    0.1994   -0.0162 C   0  0  0  0  0  0  0  0  0  0  0  0
    6.6541    0.4828   -0.0573 C   0  0  0  0  0  0  0  0  0  0  0  0
   -5.5188   -1.4731    0.2578 H   0  0  0  0  0  0  0  0  0  0  0  0
   -1.8593    1.8493   -0.1002 H   0  0  0  0  0  0  0  0  0  0  0  0
   -0.8830   -1.7076    0.2369 H   0  0  0  0  0  0  0  0  0  0  0  0
   -6.6303    1.7219    0.8597 H   0  0  0  0  0  0  0  0  0  0  0  0
   -6.6486    1.5506   -0.9204 H   0  0  0  0  0  0  0  0  0  0  0  0
   -7.1043    0.1979    0.1129 H   0  0  0  0  0  0  0  0  0  0  0  0
    1.1157   -1.7584    0.2151 H   0  0  0  0  0  0  0  0  0  0  0  0
   -2.7946   -4.3152   -0.6085 H   0  0  0  0  0  0  0  0  0  0  0  0
   -2.2387   -2.8888   -1.5107 H   0  0  0  0  0  0  0  0  0  0  0  0
   -3.9879   -3.2716   -1.4117 H   0  0  0  0  0  0  0  0  0  0  0  0
    3.3614   -2.4271    0.2551 H   0  0  0  0  0  0  0  0  0  0  0  0
    4.5579    2.2374   -0.2037 H   0  0  0  0  0  0  0  0  0  0  0  0
  1 14  1  0  0  0  0
  2 10  1  0  0  0  0
  2 18  1  0  0  0  0
  3 16  2  0  0  0  0
  4  9  1  0  0  0  0
  4 16  1  0  0  0  0
  4 25  1  0  0  0  0
  5 16  1  0  0  0  0
  5 17  1  0  0  0  0
  5 29  1  0  0  0  0
  6 17  2  0  0  0  0
  6 20  1  0  0  0  0
  7 19  2  0  0  0  0
  7 21  1  0  0  0  0
  8 22  3  0  0  0  0
  9 10  2  0  0  0  0
  9 13  1  0  0  0  0
 10 12  1  0  0  0  0
 11 12  2  0  0  0  0
 11 14  1  0  0  0  0
 11 15  1  0  0  0  0
 12 23  1  0  0  0  0
 13 14  2  0  0  0  0
 13 24  1  0  0  0  0
 15 26  1  0  0  0  0
 15 27  1  0  0  0  0
 15 28  1  0  0  0  0
 17 19  1  0  0  0  0
 18 30  1  0  0  0  0
 18 31  1  0  0  0  0
 18 32  1  0  0  0  0
 19 33  1  0  0  0  0
 20 21  2  0  0  0  0
 20 34  1  0  0  0  0
 21 22  1  0  0  0  0
M  END
> <PUBCHEM_COMPOUND_CID>
49830696

> <PUBCHEM_CONFORMER_RMSD>
0.8

> <PUBCHEM_CONFORMER_DIVERSEORDER>
1
11
17
24
22
9
20
3
14
16
4
23
8
19
6
13
2
15
10
7
21
12
18
5

> <PUBCHEM_MMFF94_PARTIAL_CHARGES>
28
1 -0.18
10 0.08
11 -0.14
12 -0.15
13 -0.15
14 0.18
15 0.14
16 0.69
17 0.43
18 0.28
19 0.16
2 -0.36
20 0.16
21 0.38
22 0.48
23 0.15
24 0.15
25 0.37
29 0.37
3 -0.57
33 0.15
34 0.15
4 -0.55
5 -0.55
6 -0.62
7 -0.62
8 -0.56
9 0.12

> <PUBCHEM_EFFECTIVE_ROTOR_COUNT>
5

> <PUBCHEM_PHARMACOPHORE_FEATURES>
8
1 2 acceptor
1 3 acceptor
1 4 donor
1 5 donor
1 7 acceptor
1 8 acceptor
6 6 7 17 19 20 21 rings
6 9 10 11 12 13 14 rings

> <PUBCHEM_HEAVY_ATOM_COUNT>
22

> <PUBCHEM_ATOM_DEF_STEREO_COUNT>
0

> <PUBCHEM_ATOM_UDEF_STEREO_COUNT>
0

> <PUBCHEM_BOND_DEF_STEREO_COUNT>
0

> <PUBCHEM_BOND_UDEF_STEREO_COUNT>
0

> <PUBCHEM_ISOTOPIC_ATOM_COUNT>
0

> <PUBCHEM_COMPONENT_COUNT>
1

> <PUBCHEM_CACTVS_TAUTO_COUNT>
5

> <PUBCHEM_CONFORMER_ID>
02F85B2800000001

> <PUBCHEM_MMFF94_ENERGY>
70.3574

> <PUBCHEM_FEATURE_SELFOVERLAP>
40.646

> <PUBCHEM_SHAPE_FINGERPRINT>
10366900 7 16845570894385192571
10411042 1 17978229689016376627
10595046 47 18335139838676810070
10968037 39 18410573989963435125
11315181 36 18114183059848199221
11524674 6 17131833179024992799
11719270 70 18201434741374406854
12091667 2 18261114101561008530
12107183 9 17758389673854053938
12236239 1 17967532367587881426
12390115 104 18199479757880895889
12616971 3 16877948265054467990
13073987 5 18260549970048326362
13167823 11 18334856121411056210
14251764 18 18335137591923617696
14341114 176 18410862031771003094
14508225 48 18125987503284968863
14933364 13 18410858754996033160
15042514 8 18336833104381126635
15183329 4 18411135814181984880
15250474 111 18336249215671444330
17093844 174 18412260670648885130
17844677 252 18338524130945732208
20281389 69 18334011666732709624
20645477 56 18411700968054690697
20681677 155 18334011692270307811
21065198 57 18411698794263318136
21236236 1 18411418453342979671
21267235 1 18336269058878560019
21709351 56 18261950851474143156
23402539 116 18333729152394700542
23559900 14 18271801358572205056
23622692 118 18127685148774310599
300161 21 18409163307707293522
3004659 81 18334860464335064394
335352 9 18410853270686884333
34797466 226 17918000490128379732
3545911 37 18412263930407925072
4073 2 18041005072457970466
4214541 1 18410293614129158569
4325135 7 18333452045378631132
445580 37 18410867546868259724
5104073 3 18261393304188673480
542803 24 17675927603356856086
59755656 215 18271250426591334230
59755656 520 16877942758537370146
6327066 14 18116988876658999773
67856867 119 18261678198281682780

> <PUBCHEM_SHAPE_MULTIPOLES>
417.98
17.67
2.62
0.64
22.92
0.72
0.03
-5.47
0.24
-4.43
0.46
-0.19
0.11
-0.2

> <PUBCHEM_SHAPE_SELFOVERLAP>
879.709

> <PUBCHEM_SHAPE_VOLUME>
234.3

> <PUBCHEM_COORDINATE_TYPE>
2
5
10

$$$$
