56832546
  -OEChem-10062121563D

 35 37  0     0  0  0  0  0  0999 V2000
    0.0000   -2.0095    0.0023 S   0  0  0  0  0  0  0  0  0  0  0  0
    0.0000    2.4995    0.0015 O   0  0  0  0  0  0  0  0  0  0  0  0
    4.6421    0.9682    0.5825 N   0  0  0  0  0  0  0  0  0  0  0  0
   -4.6416    0.9678   -0.5847 N   0  0  0  0  0  0  0  0  0  0  0  0
    1.2363    0.4610    0.1716 C   0  0  0  0  0  0  0  0  0  0  0  0
   -1.2361    0.4610   -0.1702 C   0  0  0  0  0  0  0  0  0  0  0  0
    1.1097   -0.8578    0.8650 C   0  0  0  0  0  0  0  0  0  0  0  0
   -1.1090   -0.8584   -0.8622 C   0  0  0  0  0  0  0  0  0  0  0  0
    0.0000    1.2749    0.0009 C   0  0  0  0  0  0  0  0  0  0  0  0
    2.3967    0.9831   -0.2469 C   0  0  0  0  0  0  0  0  0  0  0  0
   -2.3970    0.9835    0.2467 C   0  0  0  0  0  0  0  0  0  0  0  0
    3.7106    0.3298   -0.1607 C   0  0  0  0  0  0  0  0  0  0  0  0
   -3.7108    0.3299    0.1598 C   0  0  0  0  0  0  0  0  0  0  0  0
    3.9320   -0.8688   -0.8197 C   0  0  0  0  0  0  0  0  0  0  0  0
   -3.9329   -0.8680    0.8198 C   0  0  0  0  0  0  0  0  0  0  0  0
    5.1906   -1.4494   -0.7089 C   0  0  0  0  0  0  0  0  0  0  0  0
   -5.1913   -1.4488    0.7082 C   0  0  0  0  0  0  0  0  0  0  0  0
    5.8534    0.3739    0.6671 C   0  0  0  0  0  0  0  0  0  0  0  0
   -5.8528    0.3733   -0.6699 C   0  0  0  0  0  0  0  0  0  0  0  0
    6.1751   -0.8226    0.0470 C   0  0  0  0  0  0  0  0  0  0  0  0
   -6.1752   -0.8226   -0.0490 C   0  0  0  0  0  0  0  0  0  0  0  0
    2.0586   -1.3710    1.0348 H   0  0  0  0  0  0  0  0  0  0  0  0
    0.6895   -0.6892    1.8642 H   0  0  0  0  0  0  0  0  0  0  0  0
   -2.0577   -1.3718   -1.0324 H   0  0  0  0  0  0  0  0  0  0  0  0
   -0.6881   -0.6908   -1.8613 H   0  0  0  0  0  0  0  0  0  0  0  0
    2.4307    1.9769   -0.6879 H   0  0  0  0  0  0  0  0  0  0  0  0
   -2.4314    1.9776    0.6869 H   0  0  0  0  0  0  0  0  0  0  0  0
    3.1658   -1.3512   -1.4179 H   0  0  0  0  0  0  0  0  0  0  0  0
   -3.1672   -1.3499    1.4192 H   0  0  0  0  0  0  0  0  0  0  0  0
    5.4046   -2.3873   -1.2124 H   0  0  0  0  0  0  0  0  0  0  0  0
   -5.4057   -2.3863    1.2122 H   0  0  0  0  0  0  0  0  0  0  0  0
    6.5860    0.9026    1.2679 H   0  0  0  0  0  0  0  0  0  0  0  0
   -6.5849    0.9016   -1.2718 H   0  0  0  0  0  0  0  0  0  0  0  0
    7.1633   -1.2567    0.1469 H   0  0  0  0  0  0  0  0  0  0  0  0
   -7.1632   -1.2568   -0.1495 H   0  0  0  0  0  0  0  0  0  0  0  0
  1  7  1  0  0  0  0
  1  8  1  0  0  0  0
  2  9  2  0  0  0  0
  3 12  1  0  0  0  0
  3 18  2  0  0  0  0
  4 13  1  0  0  0  0
  4 19  2  0  0  0  0
  5  7  1  0  0  0  0
  5  9  1  0  0  0  0
  5 10  2  0  0  0  0
  6  8  1  0  0  0  0
  6  9  1  0  0  0  0
  6 11  2  0  0  0  0
  7 22  1  0  0  0  0
  7 23  1  0  0  0  0
  8 24  1  0  0  0  0
  8 25  1  0  0  0  0
 10 12  1  0  0  0  0
 10 26  1  0  0  0  0
 11 13  1  0  0  0  0
 11 27  1  0  0  0  0
 12 14  2  0  0  0  0
 13 15  2  0  0  0  0
 14 16  1  0  0  0  0
 14 28  1  0  0  0  0
 15 17  1  0  0  0  0
 15 29  1  0  0  0  0
 16 20  2  0  0  0  0
 16 30  1  0  0  0  0
 17 21  2  0  0  0  0
 17 31  1  0  0  0  0
 18 20  1  0  0  0  0
 18 32  1  0  0  0  0
 19 21  1  0  0  0  0
 19 33  1  0  0  0  0
 20 34  1  0  0  0  0
 21 35  1  0  0  0  0
M  END
> <PUBCHEM_COMPOUND_CID>
56832546

> <PUBCHEM_CONFORMER_RMSD>
0.6

> <PUBCHEM_CONFORMER_DIVERSEORDER>
8
9
7
15
3
4
5
10
12
14
16
1
6
18
2
11
20
17
19
13

> <PUBCHEM_MMFF94_PARTIAL_CHARGES>
31
1 -0.46
10 -0.18
11 -0.18
12 0.34
13 0.34
14 -0.15
15 -0.15
16 -0.15
17 -0.15
18 0.16
19 0.16
2 -0.57
20 -0.15
21 -0.15
26 0.15
27 0.15
28 0.15
29 0.15
3 -0.62
30 0.15
31 0.15
32 0.15
33 0.15
34 0.15
35 0.15
4 -0.62
5 -0.12
6 -0.12
7 0.37
8 0.37
9 0.54

> <PUBCHEM_EFFECTIVE_ROTOR_COUNT>
2.6

> <PUBCHEM_PHARMACOPHORE_FEATURES>
6
1 2 acceptor
1 3 acceptor
1 4 acceptor
6 1 5 6 7 8 9 rings
6 3 12 14 16 18 20 rings
6 4 13 15 17 19 21 rings

> <PUBCHEM_HEAVY_ATOM_COUNT>
21

> <PUBCHEM_ATOM_DEF_STEREO_COUNT>
0

> <PUBCHEM_ATOM_UDEF_STEREO_COUNT>
0

> <PUBCHEM_BOND_DEF_STEREO_COUNT>
2

> <PUBCHEM_BOND_UDEF_STEREO_COUNT>
0

> <PUBCHEM_ISOTOPIC_ATOM_COUNT>
0

> <PUBCHEM_COMPONENT_COUNT>
1

> <PUBCHEM_CACTVS_TAUTO_COUNT>
1

> <PUBCHEM_CONFORMER_ID>
0363322200000008

> <PUBCHEM_MMFF94_ENERGY>
66.3905

> <PUBCHEM_FEATURE_SELFOVERLAP>
30.448

> <PUBCHEM_SHAPE_FINGERPRINT>
10 15 18339352063892388688
11315181 36 18411703201448591577
12011746 2 18261109682219106211
12236239 1 17775567537704998921
12516196 113 18272368680775927161
12596602 18 16056885714581310475
12715332 25 18131633417187323831
12916748 109 18342740710877573776
13288520 33 18335140904087194797
13533116 47 16200157556618231958
13685833 64 18412267250681278611
13862211 1 18410573985151710978
1420 363 18412548712414397627
14251764 18 16343698858898985444
14848160 23 18411138038916755264
15183329 4 15647052663859062507
15788980 27 17458349645425043953
17492 89 18053384302118885518
17844677 252 18412550907074653353
17980427 23 13407075839021490183
18222031 100 17603589625469964076
18335252 98 18336272335674791362
18681886 176 18335698385851124233
19141452 34 17988640839178857038
19489759 90 17676206862367903277
200 152 18202282511793262385
20028762 73 18130506443834654335
20281389 69 11024114230674863131
21033648 29 17917131841593384753
21150785 3 17603875515962828740
21236236 1 18271527490399651033
21267235 1 18410863161004568994
21279426 13 18266178335848511791
21521721 280 17917992810668598530
21623969 137 18060423508065252718
21682296 61 18128828460056733854
21709351 56 17967527995828093781
23035841 295 18259706696855277275
23402539 116 18271801336991548590
23536379 177 15841555158384530194
23559900 14 18335414725490687129
3004659 81 18040720277423664148
335352 9 18409730677630189319
34797466 226 13551195463792956290
4340502 62 15051736386941104956
465052 167 18272093798874534022
474229 33 18411700989028756951
5104073 3 18129943356683976328
542803 24 14201115708812875365
59755656 215 18333732386268191242
6138700 20 18335985281224450122
7495541 125 15554157172923024115

> <PUBCHEM_SHAPE_MULTIPOLES>
420.19
15.64
1.76
0.88
0
0.06
0
-3.34
0.01
0
0
0
-0.14
0.94

> <PUBCHEM_SHAPE_SELFOVERLAP>
896.629

> <PUBCHEM_SHAPE_VOLUME>
234.4

> <PUBCHEM_COORDINATE_TYPE>
2
5
10

$$$$
