49830400
  -OEChem-10062121553D

 69 75  0     0  0  0  0  0  0999 V2000
   -0.4611    0.9980    1.6958 Cl  0  0  0  0  0  0  0  0  0  0  0  0
    4.4643    2.1512    3.7515 S   0  0  0  0  0  0  0  0  0  0  0  0
   -4.1233    1.7448    1.7145 F   0  0  0  0  0  0  0  0  0  0  0  0
   -0.9306   -3.2280    3.9342 O   0  0  0  0  0  0  0  0  0  0  0  0
   -3.8307    2.3572   -2.1961 O   0  0  0  0  0  0  0  0  0  0  0  0
   -0.5224   -3.0635    1.1583 N   0  0  0  0  0  0  0  0  0  0  0  0
    4.1496    1.2502    1.3711 N   0  0  0  0  0  0  0  0  0  0  0  0
    2.1962   -2.1924   -2.7616 N   0  0  0  0  0  0  0  0  0  0  0  0
    2.3541    2.4625    1.9158 N   0  0  0  0  0  0  0  0  0  0  0  0
    2.7892   -0.4956   -1.2582 N   0  0  0  0  0  0  0  0  0  0  0  0
    4.1452   -0.9654   -3.1941 N   0  0  0  0  0  0  0  0  0  0  0  0
   -2.5744    1.6857   -0.3264 N   0  0  0  0  0  0  0  0  0  0  0  0
    0.4419   -3.7731    2.0102 C   0  0  0  0  0  0  0  0  0  0  0  0
   -1.8723   -2.9334    1.7177 C   0  0  0  0  0  0  0  0  0  0  0  0
    0.4015   -3.1993    3.4219 C   0  0  0  0  0  0  0  0  0  0  0  0
   -1.7896   -2.4050    3.1456 C   0  0  0  0  0  0  0  0  0  0  0  0
   -0.3442   -3.1183   -0.2279 C   0  0  0  0  0  0  0  0  0  0  0  0
    0.8305   -2.6299   -0.8000 C   0  0  0  0  0  0  0  0  0  0  0  0
   -1.3413   -3.6617   -1.0382 C   0  0  0  0  0  0  0  0  0  0  0  0
    3.3413    1.1939    0.2774 C   0  0  0  0  0  0  0  0  0  0  0  0
    1.0082   -2.6849   -2.1823 C   0  0  0  0  0  0  0  0  0  0  0  0
    2.2375    1.9502    0.6368 C   0  0  0  0  0  0  0  0  0  0  0  0
   -1.1634   -3.7167   -2.4205 C   0  0  0  0  0  0  0  0  0  0  0  0
    3.5145    2.0118    2.3040 C   0  0  0  0  0  0  0  0  0  0  0  0
    3.6630    0.4781   -0.9284 C   0  0  0  0  0  0  0  0  0  0  0  0
    1.0961    2.1910   -0.1955 C   0  0  0  0  0  0  0  0  0  0  0  0
    0.0114   -3.2282   -2.9927 C   0  0  0  0  0  0  0  0  0  0  0  0
    5.3772    0.7560    1.7429 C   0  0  0  0  0  0  0  0  0  0  0  0
    3.0869   -1.1680   -2.3864 C   0  0  0  0  0  0  0  0  0  0  0  0
   -0.1901    1.8026    0.1790 C   0  0  0  0  0  0  0  0  0  0  0  0
    1.3027    2.8359   -1.4151 C   0  0  0  0  0  0  0  0  0  0  0  0
    4.7851    0.7849   -1.6709 C   0  0  0  0  0  0  0  0  0  0  0  0
   -1.2699    2.0590   -0.6658 C   0  0  0  0  0  0  0  0  0  0  0  0
    5.7045    1.1399    2.9886 C   0  0  0  0  0  0  0  0  0  0  0  0
    0.2227    3.0924   -2.2599 C   0  0  0  0  0  0  0  0  0  0  0  0
   -1.0635    2.7039   -1.8853 C   0  0  0  0  0  0  0  0  0  0  0  0
    4.9776    0.0227   -2.8050 C   0  0  0  0  0  0  0  0  0  0  0  0
   -3.7396    1.8499   -1.0833 C   0  0  0  0  0  0  0  0  0  0  0  0
   -4.9811    1.3208   -0.4599 C   0  0  0  0  0  0  0  0  0  0  0  0
   -5.1119    1.2945    0.9285 C   0  0  0  0  0  0  0  0  0  0  0  0
   -6.0166    0.8498   -1.2671 C   0  0  0  0  0  0  0  0  0  0  0  0
   -6.2783    0.7974    1.5098 C   0  0  0  0  0  0  0  0  0  0  0  0
   -7.1830    0.3526   -0.6857 C   0  0  0  0  0  0  0  0  0  0  0  0
   -7.3139    0.3264    0.7026 C   0  0  0  0  0  0  0  0  0  0  0  0
    0.1686   -4.8353    2.0337 H   0  0  0  0  0  0  0  0  0  0  0  0
    1.4666   -3.6999    1.6305 H   0  0  0  0  0  0  0  0  0  0  0  0
   -2.4841   -2.2432    1.1245 H   0  0  0  0  0  0  0  0  0  0  0  0
   -2.3571   -3.9174    1.7240 H   0  0  0  0  0  0  0  0  0  0  0  0
    0.7793   -2.1698    3.4455 H   0  0  0  0  0  0  0  0  0  0  0  0
    1.0305   -3.7992    4.0871 H   0  0  0  0  0  0  0  0  0  0  0  0
   -2.7831   -2.4196    3.6050 H   0  0  0  0  0  0  0  0  0  0  0  0
   -1.4285   -1.3724    3.1770 H   0  0  0  0  0  0  0  0  0  0  0  0
    1.6023   -2.2370   -0.1463 H   0  0  0  0  0  0  0  0  0  0  0  0
   -2.2624   -4.0635   -0.6259 H   0  0  0  0  0  0  0  0  0  0  0  0
   -1.9382   -4.1423   -3.0516 H   0  0  0  0  0  0  0  0  0  0  0  0
    0.1375   -3.2768   -4.0712 H   0  0  0  0  0  0  0  0  0  0  0  0
    2.3986   -2.5668   -3.6837 H   0  0  0  0  0  0  0  0  0  0  0  0
    5.9666    0.1377    1.0833 H   0  0  0  0  0  0  0  0  0  0  0  0
    2.2933    3.1597   -1.7262 H   0  0  0  0  0  0  0  0  0  0  0  0
    5.4772    1.5726   -1.4002 H   0  0  0  0  0  0  0  0  0  0  0  0
    6.6181    0.8769    3.5026 H   0  0  0  0  0  0  0  0  0  0  0  0
    0.3845    3.5982   -3.2075 H   0  0  0  0  0  0  0  0  0  0  0  0
   -1.8350    2.9508   -2.5985 H   0  0  0  0  0  0  0  0  0  0  0  0
    5.8313    0.1915   -3.4526 H   0  0  0  0  0  0  0  0  0  0  0  0
   -2.6532    1.2146    0.5717 H   0  0  0  0  0  0  0  0  0  0  0  0
   -5.9322    0.8565   -2.3506 H   0  0  0  0  0  0  0  0  0  0  0  0
   -6.3797    0.7769    2.5908 H   0  0  0  0  0  0  0  0  0  0  0  0
   -7.9889   -0.0153   -1.3140 H   0  0  0  0  0  0  0  0  0  0  0  0
   -8.2219   -0.0611    1.1553 H   0  0  0  0  0  0  0  0  0  0  0  0
  1 30  1  0  0  0  0
  2 24  1  0  0  0  0
  2 34  1  0  0  0  0
  3 40  1  0  0  0  0
  4 15  1  0  0  0  0
  4 16  1  0  0  0  0
  5 38  2  0  0  0  0
  6 13  1  0  0  0  0
  6 14  1  0  0  0  0
  6 17  1  0  0  0  0
  7 20  1  0  0  0  0
  7 24  1  0  0  0  0
  7 28  1  0  0  0  0
  8 21  1  0  0  0  0
  8 29  1  0  0  0  0
  8 57  1  0  0  0  0
  9 22  1  0  0  0  0
  9 24  2  0  0  0  0
 10 25  2  0  0  0  0
 10 29  1  0  0  0  0
 11 29  2  0  0  0  0
 11 37  1  0  0  0  0
 12 33  1  0  0  0  0
 12 38  1  0  0  0  0
 12 65  1  0  0  0  0
 13 15  1  0  0  0  0
 13 45  1  0  0  0  0
 13 46  1  0  0  0  0
 14 16  1  0  0  0  0
 14 47  1  0  0  0  0
 14 48  1  0  0  0  0
 15 49  1  0  0  0  0
 15 50  1  0  0  0  0
 16 51  1  0  0  0  0
 16 52  1  0  0  0  0
 17 18  1  0  0  0  0
 17 19  2  0  0  0  0
 18 21  2  0  0  0  0
 18 53  1  0  0  0  0
 19 23  1  0  0  0  0
 19 54  1  0  0  0  0
 20 22  2  0  0  0  0
 20 25  1  0  0  0  0
 21 27  1  0  0  0  0
 22 26  1  0  0  0  0
 23 27  2  0  0  0  0
 23 55  1  0  0  0  0
 25 32  1  0  0  0  0
 26 30  2  0  0  0  0
 26 31  1  0  0  0  0
 27 56  1  0  0  0  0
 28 34  2  0  0  0  0
 28 58  1  0  0  0  0
 30 33  1  0  0  0  0
 31 35  2  0  0  0  0
 31 59  1  0  0  0  0
 32 37  2  0  0  0  0
 32 60  1  0  0  0  0
 33 36  2  0  0  0  0
 34 61  1  0  0  0  0
 35 36  1  0  0  0  0
 35 62  1  0  0  0  0
 36 63  1  0  0  0  0
 37 64  1  0  0  0  0
 38 39  1  0  0  0  0
 39 40  1  0  0  0  0
 39 41  2  0  0  0  0
 40 42  2  0  0  0  0
 41 43  1  0  0  0  0
 41 66  1  0  0  0  0
 42 44  1  0  0  0  0
 42 67  1  0  0  0  0
 43 44  2  0  0  0  0
 43 68  1  0  0  0  0
 44 69  1  0  0  0  0
M  END
> <PUBCHEM_COMPOUND_CID>
49830400

> <PUBCHEM_CONFORMER_RMSD>
1.2

> <PUBCHEM_CONFORMER_DIVERSEORDER>
1
39
83
50
105
179
146
128
69
71
145
114
119
90
180
24
97
36
30
122
48
167
107
111
63
162
154
172
123
40
168
93
80
153
12
18
100
65
155
42
161
7
136
177
75
29
178
14
117
95
144
175
38
15
164
151
85
91
166
137
134
121
76
89
157
159
46
115
182
174
49
78
127
98
181
60
106
170
67
125
169
17
165
147
59
112
4
135
11
77
139
133
150
108
96
148
54
88
3
160
110
32
152
35
16
118
116
28
143
87
6
58
131
22
64
86
92
73
21
149
171
79
74
23
61
163
176
99
126
101
82
140
53
113
129
132
13
158
25
2
44
37
130
62
109
9
31
94
19
124
55
47
34
104
10
26
84
45
56
51
173
102
138
27
142
81
57
141
103
52
43
68
5
70
156
41
120
8
33
20
72
66

> <PUBCHEM_MMFF94_PARTIAL_CHARGES>
61
1 -0.18
10 -0.62
11 -0.62
12 -0.55
13 0.37
14 0.37
15 0.28
16 0.28
17 0.1
18 -0.15
19 -0.15
2 -0.16
20 -0.2
21 0.1
22 0.17
23 -0.15
24 0.24
25 0.36
26 0.05
27 -0.15
28 -0.18
29 0.72
3 -0.19
30 0.18
31 -0.15
32 -0.15
33 0.12
34 -0.05
35 -0.15
36 -0.15
37 0.16
38 0.54
39 0.09
4 -0.56
40 0.19
41 -0.15
42 -0.15
43 -0.15
44 -0.15
5 -0.57
53 0.15
54 0.15
55 0.15
56 0.15
57 0.4
58 0.15
59 0.15
6 -0.84
60 0.15
61 0.15
62 0.15
63 0.15
64 0.15
65 0.37
66 0.15
67 0.15
68 0.15
69 0.15
7 0.33
8 -0.6
9 -0.57

> <PUBCHEM_EFFECTIVE_ROTOR_COUNT>
9.2

> <PUBCHEM_PHARMACOPHORE_FEATURES>
15
1 10 acceptor
1 12 donor
1 4 acceptor
1 5 acceptor
1 6 cation
1 8 donor
3 7 9 24 cation
4 8 10 11 29 cation
5 2 7 24 28 34 rings
5 7 9 20 22 24 rings
6 10 11 25 29 32 37 rings
6 17 18 19 21 23 27 rings
6 26 30 31 33 35 36 rings
6 39 40 41 42 43 44 rings
6 4 6 13 14 15 16 rings

> <PUBCHEM_HEAVY_ATOM_COUNT>
44

> <PUBCHEM_ATOM_DEF_STEREO_COUNT>
0

> <PUBCHEM_ATOM_UDEF_STEREO_COUNT>
0

> <PUBCHEM_BOND_DEF_STEREO_COUNT>
0

> <PUBCHEM_BOND_UDEF_STEREO_COUNT>
0

> <PUBCHEM_ISOTOPIC_ATOM_COUNT>
0

> <PUBCHEM_COMPONENT_COUNT>
1

> <PUBCHEM_CACTVS_TAUTO_COUNT>
6

> <PUBCHEM_CONFORMER_ID>
02F85A0000000001

> <PUBCHEM_MMFF94_ENERGY>
155.8867

> <PUBCHEM_FEATURE_SELFOVERLAP>
76.379

> <PUBCHEM_SHAPE_FINGERPRINT>
10032420 55 17974864868926025222
10816530 23 17558253595338854104
11028528 32 18041836333129302123
12156800 1 18041570246571376418
12655364 131 16415480433861268954
1361 2 17988931054498099053
15001296 14 17703501130679088189
15444296 8 17175220049490915603
15815584 197 18115020789304215873
15968369 26 17823125723521825517
20587220 17 13984950670678666607
22956985 138 17535733106057835611
563151 248 18268686442030144745
6376802 137 17339007335398685918
86090 222 18340496581791141789

> <PUBCHEM_SHAPE_MULTIPOLES>
857.34
12.97
5.37
4.42
15.51
5.2
2.2
-9.94
2.48
0.55
-0.02
-4.18
2.43
3.67

> <PUBCHEM_SHAPE_SELFOVERLAP>
1894.291

> <PUBCHEM_SHAPE_VOLUME>
464.8

> <PUBCHEM_COORDINATE_TYPE>
2
5
10

$$$$
