5330812
  -OEChem-10052120443D

 41 43  0     0  0  0  0  0  0999 V2000
   -6.8799   -1.3494   -0.3611 S   0  0  0  0  0  0  0  0  0  0  0  0
    1.7182   -1.9930    0.5268 S   0  0  0  0  0  0  0  0  0  0  0  0
    5.0362    0.3032   -2.5182 F   0  0  0  0  0  0  0  0  0  0  0  0
    4.1849   -1.0638    1.9514 F   0  0  0  0  0  0  0  0  0  0  0  0
   -7.6645   -0.7891   -1.4524 O   0  0  0  0  0  0  0  0  0  0  0  0
   -6.4962   -2.7539   -0.3931 O   0  0  0  0  0  0  0  0  0  0  0  0
   -1.9666    1.9347    0.2943 N   0  0  0  0  0  0  0  0  0  0  0  0
    1.1784    0.6546    0.2580 N   0  0  0  0  0  0  0  0  0  0  0  0
   -0.1347    0.3951    0.1660 N   0  0  0  0  0  0  0  0  0  0  0  0
    3.2633    0.0954   -0.3946 N   0  0  0  0  0  0  0  0  0  0  0  0
    0.2616    2.6254    0.4848 N   0  0  0  0  0  0  0  0  0  0  0  0
   -7.6829   -1.0339    1.1137 N   0  0  0  0  0  0  0  0  0  0  0  0
    2.6677    2.4531    0.5656 N   0  0  0  0  0  0  0  0  0  0  0  0
   -3.1323    1.1563    0.1393 C   0  0  0  0  0  0  0  0  0  0  0  0
   -5.4376   -0.3848   -0.1677 C   0  0  0  0  0  0  0  0  0  0  0  0
   -4.2706    1.7126   -0.4442 C   0  0  0  0  0  0  0  0  0  0  0  0
   -3.1467   -0.1706    0.5690 C   0  0  0  0  0  0  0  0  0  0  0  0
   -5.4232    0.9422   -0.5977 C   0  0  0  0  0  0  0  0  0  0  0  0
   -4.2993   -0.9411    0.4156 C   0  0  0  0  0  0  0  0  0  0  0  0
   -0.5966    1.6081    0.3098 C   0  0  0  0  0  0  0  0  0  0  0  0
    1.4056    1.9822    0.4470 C   0  0  0  0  0  0  0  0  0  0  0  0
    2.0744   -0.3873    0.1563 C   0  0  0  0  0  0  0  0  0  0  0  0
    4.5989   -0.3769   -0.2846 C   0  0  0  0  0  0  0  0  0  0  0  0
    5.4470   -0.2522   -1.3689 C   0  0  0  0  0  0  0  0  0  0  0  0
    5.0139   -0.9475    0.9038 C   0  0  0  0  0  0  0  0  0  0  0  0
    6.7583   -0.7151   -1.2608 C   0  0  0  0  0  0  0  0  0  0  0  0
    6.3253   -1.4102    1.0121 C   0  0  0  0  0  0  0  0  0  0  0  0
    7.1974   -1.2941   -0.0702 C   0  0  0  0  0  0  0  0  0  0  0  0
   -4.2728    2.7455   -0.7833 H   0  0  0  0  0  0  0  0  0  0  0  0
   -2.2914   -0.6285    1.0556 H   0  0  0  0  0  0  0  0  0  0  0  0
   -6.3000    1.3978   -1.0491 H   0  0  0  0  0  0  0  0  0  0  0  0
   -4.2926   -1.9685    0.7690 H   0  0  0  0  0  0  0  0  0  0  0  0
   -2.1781    2.9310    0.2988 H   0  0  0  0  0  0  0  0  0  0  0  0
    3.1643    0.8487   -1.0750 H   0  0  0  0  0  0  0  0  0  0  0  0
   -8.5283   -0.4513    1.0810 H   0  0  0  0  0  0  0  0  0  0  0  0
   -7.7278   -1.7934    1.8041 H   0  0  0  0  0  0  0  0  0  0  0  0
    7.4372   -0.6245   -2.1036 H   0  0  0  0  0  0  0  0  0  0  0  0
    6.6670   -1.8609    1.9392 H   0  0  0  0  0  0  0  0  0  0  0  0
    8.2185   -1.6545    0.0140 H   0  0  0  0  0  0  0  0  0  0  0  0
    3.4885    1.8629    0.6329 H   0  0  0  0  0  0  0  0  0  0  0  0
    2.8431    3.4456    0.6875 H   0  0  0  0  0  0  0  0  0  0  0  0
  1  5  2  0  0  0  0
  1  6  2  0  0  0  0
  1 12  1  0  0  0  0
  1 15  1  0  0  0  0
  2 22  2  0  0  0  0
  3 24  1  0  0  0  0
  4 25  1  0  0  0  0
  7 14  1  0  0  0  0
  7 20  1  0  0  0  0
  7 33  1  0  0  0  0
  8  9  1  0  0  0  0
  8 21  1  0  0  0  0
  8 22  1  0  0  0  0
  9 20  2  0  0  0  0
 10 22  1  0  0  0  0
 10 23  1  0  0  0  0
 10 34  1  0  0  0  0
 11 20  1  0  0  0  0
 11 21  2  0  0  0  0
 12 35  1  0  0  0  0
 12 36  1  0  0  0  0
 13 21  1  0  0  0  0
 13 40  1  0  0  0  0
 13 41  1  0  0  0  0
 14 16  2  0  0  0  0
 14 17  1  0  0  0  0
 15 18  2  0  0  0  0
 15 19  1  0  0  0  0
 16 18  1  0  0  0  0
 16 29  1  0  0  0  0
 17 19  2  0  0  0  0
 17 30  1  0  0  0  0
 18 31  1  0  0  0  0
 19 32  1  0  0  0  0
 23 24  2  0  0  0  0
 23 25  1  0  0  0  0
 24 26  1  0  0  0  0
 25 27  2  0  0  0  0
 26 28  2  0  0  0  0
 26 37  1  0  0  0  0
 27 28  1  0  0  0  0
 27 38  1  0  0  0  0
 28 39  1  0  0  0  0
M  END
> <PUBCHEM_COMPOUND_CID>
5330812

> <PUBCHEM_CONFORMER_RMSD>
0.8

> <PUBCHEM_CONFORMER_DIVERSEORDER>
1
112
190
138
170
30
234
237
253
262
230
223
76
166
152
11
62
132
8
47
82
92
260
139
183
195
197
116
255
123
153
150
231
140
25
74
172
249
39
267
178
180
71
40
130
186
213
83
141
271
91
256
175
12
38
242
192
32
221
257
84
56
215
115
111
179
196
149
124
17
43
236
129
117
247
58
127
227
110
114
16
250
90
206
147
241
265
225
258
122
154
187
239
164
151
95
81
252
243
219
128
169
134
49
133
222
121
57
61
125
27
160
208
20
86
161
14
68
200
93
174
191
159
44
244
270
89
226
46
67
143
99
52
48
171
207
201
36
220
94
3
211
45
15
182
224
177
29
60
28
72
100
176
245
87
50
233
103
232
7
229
65
188
156
64
118
248
31
266
35
102
105
101
251
26
85
69
33
120
109
73
126
193
55
70
88
136
209
97
106
59
238
165
13
210
228
104
113
199
268
254
157
263
212
202
269
6
155
216
137
131
51
119
158
5
185
204
75
189
205
24
148
145
53
235
22
240
146
259
2
261
41
203
63
246
80
214
42
21
4
18
162
217
54
181
167
23
108
264
142
163
34
79
96
194
66
135
107
37
144
78
218
19
173
168
198
10
9
77
98
184

> <PUBCHEM_MMFF94_PARTIAL_CHARGES>
41
1 1.45
10 -0.55
11 -0.57
12 -0.98
13 -0.88
14 0.1
15 -0.01
16 -0.15
17 -0.15
18 -0.15
19 -0.15
2 -0.38
20 0.6
21 0.27
22 0.45
23 0.12
24 0.19
25 0.19
26 -0.15
27 -0.15
28 -0.15
29 0.15
3 -0.19
30 0.15
31 0.15
32 0.15
33 0.4
34 0.37
35 0.42
36 0.42
37 0.15
38 0.15
39 0.15
4 -0.19
40 0.4
41 0.4
5 -0.65
6 -0.65
7 -0.58
8 0.56
9 -0.71

> <PUBCHEM_EFFECTIVE_ROTOR_COUNT>
6

> <PUBCHEM_PHARMACOPHORE_FEATURES>
12
1 10 donor
1 12 donor
1 13 donor
1 2 acceptor
1 5 acceptor
1 6 acceptor
1 7 donor
4 7 9 11 20 cation
4 8 11 13 21 cation
5 8 9 11 20 21 rings
6 14 15 16 17 18 19 rings
6 23 24 25 26 27 28 rings

> <PUBCHEM_HEAVY_ATOM_COUNT>
28

> <PUBCHEM_ATOM_DEF_STEREO_COUNT>
0

> <PUBCHEM_ATOM_UDEF_STEREO_COUNT>
0

> <PUBCHEM_BOND_DEF_STEREO_COUNT>
0

> <PUBCHEM_BOND_UDEF_STEREO_COUNT>
0

> <PUBCHEM_ISOTOPIC_ATOM_COUNT>
0

> <PUBCHEM_COMPONENT_COUNT>
1

> <PUBCHEM_CACTVS_TAUTO_COUNT>
10

> <PUBCHEM_CONFORMER_ID>
0051577C00000001

> <PUBCHEM_MMFF94_ENERGY>
83.6419

> <PUBCHEM_FEATURE_SELFOVERLAP>
61.101

> <PUBCHEM_SHAPE_FINGERPRINT>
10 15 11671782680735370111
10299344 5 18114185220380071539
11524674 6 17132113555128340183
11646440 116 17632859728375283738
11963148 33 18340480084896708838
12166972 35 18114184154848959149
12236239 1 18041283167421473416
12516196 113 18272368654963827952
12596602 18 14045736015320196535
13631057 29 18340205202382671161
13668630 136 18343023263912174990
13673619 4 18412262844261682257
13685833 64 18272652359170931401
13690498 29 18260263041233692453
13782708 43 18411132572024871661
13862211 1 18411982438477990762
14068700 675 18413108359717881913
14117953 113 18201715159635805647
14123256 34 18272090504581720687
14767858 380 18114185228711744690
14849402 71 12822711891315695986
14931854 50 18186798054963647027
15183329 4 16660361463346941824
15927050 60 17910389825618510700
18335252 98 18131352991221681430
18681886 176 18408882936985545112
20028762 73 18130787875692672358
21054139 6 18260831462658872466
21150785 3 17385446531029249172
21267235 1 18411985771599485265
21315759 148 16845297081861895344
22956985 138 17907300949517115726
23198884 109 16225766307604668229
23522609 53 18120406248190937749
23559900 14 18262794211606287489
23569917 315 18263930943526938410
249999 5 18057315300737856448
2747138 104 17989485208469391696
2748736 6 8862948260295362155
3004659 81 18260263057875419657
312425 54 15267339626236854381
335352 9 18409442558940906645
3383291 50 18202561800468829783
3663271 9 12895063016118326893
4098825 35 17022894606790748839
439807 62 18186523207247737035
465052 167 18202566181144983060
5104073 3 18131067143404346521
5470011 282 17458349666989746567
5718773 13 18271239525975009719
59682541 35 17774712126617854346
59682541 52 15864066547083601218
6700243 42 18053690004758239812
86090 222 17059796450254576918
8863177 126 18338236093438120755

> <PUBCHEM_SHAPE_MULTIPOLES>
522.77
22.53
2.37
1.26
11.59
0.63
0.38
-14.32
4.91
1.59
-0.39
-1.54
-0.2
-0.59

> <PUBCHEM_SHAPE_SELFOVERLAP>
1116.723

> <PUBCHEM_SHAPE_VOLUME>
294.2

> <PUBCHEM_COORDINATE_TYPE>
2
5
10

$$$$
