49830384
  -OEChem-10052120443D

 47 50  0     0  0  0  0  0  0999 V2000
   -8.6530    1.6150    0.6428 F   0  0  0  0  0  0  0  0  0  0  0  0
   -9.6005   -0.1395   -0.2241 F   0  0  0  0  0  0  0  0  0  0  0  0
   -8.5422    1.2714   -1.4958 F   0  0  0  0  0  0  0  0  0  0  0  0
   -2.0662   -1.3733    0.3712 O   0  0  0  0  0  0  0  0  0  0  0  0
   -1.2889    0.8152    0.0616 N   0  0  0  0  0  0  0  0  0  0  0  0
    4.4771   -0.1355   -1.9517 N   0  0  0  0  0  0  0  0  0  0  0  0
    7.2110   -0.3939   -1.6727 N   0  0  0  0  0  0  0  0  0  0  0  0
   -3.5589    0.3905    0.0109 N   0  0  0  0  0  0  0  0  0  0  0  0
    8.4160   -0.1438    0.8183 N   0  0  0  0  0  0  0  0  0  0  0  0
    4.3050    0.2519    0.4441 C   0  0  0  0  0  0  0  0  0  0  0  0
    2.8653    0.3968    0.3456 C   0  0  0  0  0  0  0  0  0  0  0  0
    5.0914   -0.0072   -0.6771 C   0  0  0  0  0  0  0  0  0  0  0  0
    6.4739   -0.1440   -0.5763 C   0  0  0  0  0  0  0  0  0  0  0  0
    4.9064    0.3768    1.6876 C   0  0  0  0  0  0  0  0  0  0  0  0
    7.0840   -0.0174    0.6851 C   0  0  0  0  0  0  0  0  0  0  0  0
    2.3049    1.6533    0.1152 C   0  0  0  0  0  0  0  0  0  0  0  0
    2.0409   -0.7202    0.4811 C   0  0  0  0  0  0  0  0  0  0  0  0
    0.0960    0.6757    0.1562 C   0  0  0  0  0  0  0  0  0  0  0  0
    6.2891    0.2416    1.7992 C   0  0  0  0  0  0  0  0  0  0  0  0
    0.9204    1.7928    0.0205 C   0  0  0  0  0  0  0  0  0  0  0  0
    0.6563   -0.5808    0.3865 C   0  0  0  0  0  0  0  0  0  0  0  0
   -4.8169   -0.2557    0.0486 C   0  0  0  0  0  0  0  0  0  0  0  0
   -7.2263   -0.1562   -0.0987 C   0  0  0  0  0  0  0  0  0  0  0  0
   -5.9866    0.4820   -0.1337 C   0  0  0  0  0  0  0  0  0  0  0  0
   -2.2873   -0.1836    0.1692 C   0  0  0  0  0  0  0  0  0  0  0  0
   -4.8871   -1.6318    0.2657 C   0  0  0  0  0  0  0  0  0  0  0  0
   -7.2965   -1.5324    0.1186 C   0  0  0  0  0  0  0  0  0  0  0  0
   -6.1269   -2.2701    0.3008 C   0  0  0  0  0  0  0  0  0  0  0  0
    8.5417   -0.5168   -1.5183 C   0  0  0  0  0  0  0  0  0  0  0  0
    9.1356   -0.3935   -0.2903 C   0  0  0  0  0  0  0  0  0  0  0  0
   -8.4774    0.6330   -0.2901 C   0  0  0  0  0  0  0  0  0  0  0  0
    4.3211    0.5790    2.5812 H   0  0  0  0  0  0  0  0  0  0  0  0
    2.9333    2.5342    0.0067 H   0  0  0  0  0  0  0  0  0  0  0  0
    2.4630   -1.7064    0.6606 H   0  0  0  0  0  0  0  0  0  0  0  0
    6.7480    0.3419    2.7808 H   0  0  0  0  0  0  0  0  0  0  0  0
    0.4973    2.7778   -0.1593 H   0  0  0  0  0  0  0  0  0  0  0  0
    0.0879   -1.4924    0.5025 H   0  0  0  0  0  0  0  0  0  0  0  0
   -1.6222    1.7611   -0.1071 H   0  0  0  0  0  0  0  0  0  0  0  0
    5.0549   -0.3240   -2.7607 H   0  0  0  0  0  0  0  0  0  0  0  0
    3.4774   -0.0435   -2.0649 H   0  0  0  0  0  0  0  0  0  0  0  0
   -5.9360    1.5553   -0.3032 H   0  0  0  0  0  0  0  0  0  0  0  0
   -3.5895    1.3937   -0.1521 H   0  0  0  0  0  0  0  0  0  0  0  0
   -4.0299   -2.2723    0.4154 H   0  0  0  0  0  0  0  0  0  0  0  0
   -8.2520   -2.0485    0.1500 H   0  0  0  0  0  0  0  0  0  0  0  0
   -6.1827   -3.3416    0.4700 H   0  0  0  0  0  0  0  0  0  0  0  0
    9.1111   -0.7177   -2.4168 H   0  0  0  0  0  0  0  0  0  0  0  0
   10.2053   -0.4905   -0.1549 H   0  0  0  0  0  0  0  0  0  0  0  0
  1 31  1  0  0  0  0
  2 31  1  0  0  0  0
  3 31  1  0  0  0  0
  4 25  2  0  0  0  0
  5 18  1  0  0  0  0
  5 25  1  0  0  0  0
  5 38  1  0  0  0  0
  6 12  1  0  0  0  0
  6 39  1  0  0  0  0
  6 40  1  0  0  0  0
  7 13  2  0  0  0  0
  7 29  1  0  0  0  0
  8 22  1  0  0  0  0
  8 25  1  0  0  0  0
  8 42  1  0  0  0  0
  9 15  2  0  0  0  0
  9 30  1  0  0  0  0
 10 11  1  0  0  0  0
 10 12  2  0  0  0  0
 10 14  1  0  0  0  0
 11 16  2  0  0  0  0
 11 17  1  0  0  0  0
 12 13  1  0  0  0  0
 13 15  1  0  0  0  0
 14 19  2  0  0  0  0
 14 32  1  0  0  0  0
 15 19  1  0  0  0  0
 16 20  1  0  0  0  0
 16 33  1  0  0  0  0
 17 21  2  0  0  0  0
 17 34  1  0  0  0  0
 18 20  2  0  0  0  0
 18 21  1  0  0  0  0
 19 35  1  0  0  0  0
 20 36  1  0  0  0  0
 21 37  1  0  0  0  0
 22 24  1  0  0  0  0
 22 26  2  0  0  0  0
 23 24  2  0  0  0  0
 23 27  1  0  0  0  0
 23 31  1  0  0  0  0
 24 41  1  0  0  0  0
 26 28  1  0  0  0  0
 26 43  1  0  0  0  0
 27 28  2  0  0  0  0
 27 44  1  0  0  0  0
 28 45  1  0  0  0  0
 29 30  2  0  0  0  0
 29 46  1  0  0  0  0
 30 47  1  0  0  0  0
M  END
> <PUBCHEM_COMPOUND_CID>
49830384

> <PUBCHEM_CONFORMER_RMSD>
0.8

> <PUBCHEM_CONFORMER_DIVERSEORDER>
2
16
23
15
12
33
17
30
36
3
28
6
13
21
34
14
5
8
37
31
25
19
27
18
10
4
32
11
35
20
7
22
29
9
26
24
1

> <PUBCHEM_MMFF94_PARTIAL_CHARGES>
45
1 -0.34
12 0.1
13 0.31
14 -0.15
15 0.31
16 -0.15
17 -0.15
18 0.12
19 -0.15
2 -0.34
20 -0.15
21 -0.15
22 0.12
23 -0.14
24 -0.15
25 0.69
26 -0.15
27 -0.15
28 -0.15
29 0.16
3 -0.34
30 0.16
31 1.16
32 0.15
33 0.15
34 0.15
35 0.15
36 0.15
37 0.15
38 0.37
39 0.4
4 -0.57
40 0.4
41 0.15
42 0.37
43 0.15
44 0.15
45 0.15
46 0.15
47 0.15
5 -0.55
6 -0.9
7 -0.62
8 -0.55
9 -0.62

> <PUBCHEM_EFFECTIVE_ROTOR_COUNT>
6

> <PUBCHEM_PHARMACOPHORE_FEATURES>
11
1 4 acceptor
1 5 donor
1 6 cation
1 6 donor
1 7 acceptor
1 8 donor
1 9 acceptor
6 10 12 13 14 15 19 rings
6 11 16 17 18 20 21 rings
6 22 23 24 26 27 28 rings
6 7 9 13 15 29 30 rings

> <PUBCHEM_HEAVY_ATOM_COUNT>
31

> <PUBCHEM_ATOM_DEF_STEREO_COUNT>
0

> <PUBCHEM_ATOM_UDEF_STEREO_COUNT>
0

> <PUBCHEM_BOND_DEF_STEREO_COUNT>
0

> <PUBCHEM_BOND_UDEF_STEREO_COUNT>
0

> <PUBCHEM_ISOTOPIC_ATOM_COUNT>
0

> <PUBCHEM_COMPONENT_COUNT>
1

> <PUBCHEM_CACTVS_TAUTO_COUNT>
40

> <PUBCHEM_CONFORMER_ID>
02F859F000000002

> <PUBCHEM_MMFF94_ENERGY>
111.6125

> <PUBCHEM_FEATURE_SELFOVERLAP>
55.911

> <PUBCHEM_SHAPE_FINGERPRINT>
10299344 5 17313100860655294347
106641 1 11671779356494103518
10666366 153 18272652333369713132
10674148 151 18187642530963446968
11181472 205 17386000611796381948
11315181 36 17846781832695607179
11638347 137 16200435771197377790
11719270 70 18344145899238294790
12089408 11 17675923209420936450
12741549 16 17775279453528664104
12758862 56 18411414050848092497
13617811 41 18334863801677511164
13885169 127 18273497854112520145
14117953 113 18413389843078201293
14150022 121 9799425412228703179
14251764 18 17530681017573419243
14251764 46 18411136935110173211
14294032 229 18042405729506790325
14428016 248 16443350866284133837
15065858 18 17917988386488292850
15183329 4 18334579044670436001
15301273 46 18060136539830261664
15328684 2 17605259705938835377
15419008 47 18060695087474763320
15419008 91 18271506676724650689
15439362 3 16952831711725146412
15510794 2 17775284984697155231
1577012 14 17385438843038179339
15849732 13 17989487437203931804
15980000 95 17385443223926486589
16087824 20 18261670369263450221
16120349 18 15841545297841115736
18335252 98 10809338927834786025
21150785 3 16660642964657939086
21267235 1 18411421734412787121
21360443 120 17167858656525003451
21772524 286 16806715176326970933
21792934 111 18272362093114052408
22224240 67 10807935959719488620
232437 2 18333731330212268539
23516275 137 16951130543375789075
23576562 1 17460326665963299702
249057 3 18410854391377643861
3004659 81 18187366566799255916
3092352 35 16660363692836181547
335352 9 18333447660369859623
4017518 198 17917434236902737518
4073 2 17749954487619687003
4325135 7 17675924291652390318
44389302 135 18188477001278622362
4625314 4 18341612654522628076
5219985 9 17676485051299585316
5283156 175 17748825203320520138
58902169 19 17022908998999960710
59520757 100 18336549434191551958
6081469 158 17275103920938193616
6126387 218 16415483732053176449
9663363 56 18342172272488977584

> <PUBCHEM_SHAPE_MULTIPOLES>
585.37
34.15
1.43
1.23
24.39
0.1
-0.15
2.78
-5.33
2.65
0.07
-2.61
0
1.45

> <PUBCHEM_SHAPE_SELFOVERLAP>
1303.531

> <PUBCHEM_SHAPE_VOLUME>
311.5

> <PUBCHEM_COORDINATE_TYPE>
2
5
10

$$$$
