44353122
  -OEChem-10052115143D

 67 74  0     1  0  0  0  0  0999 V2000
    0.8852   -1.7374   -2.0340 O   0  0  0  0  0  0  0  0  0  0  0  0
    3.8126   -1.3084    0.2048 O   0  0  0  0  0  0  0  0  0  0  0  0
   -4.7300    2.2952    0.5204 O   0  0  0  0  0  0  0  0  0  0  0  0
    1.4366    0.2190   -0.8348 N   0  0  0  0  0  0  0  0  0  0  0  0
   -1.0006   -1.5256   -0.7042 N   0  0  0  0  0  0  0  0  0  0  0  0
    1.3732   -1.7489    1.6861 N   0  0  2  0  0  0  0  0  0  0  0  0
   -3.1000    3.9720    0.5998 N   0  0  0  0  0  0  0  0  0  0  0  0
    1.9555   -1.0224   -1.4126 C   0  0  1  0  0  0  0  0  0  0  0  0
    2.7151   -1.9519   -0.4264 C   0  0  2  0  0  0  0  0  0  0  0  0
    1.8299   -2.6374    0.6197 C   0  0  2  0  0  0  0  0  0  0  0  0
    0.0092   -2.4344   -1.1781 C   0  0  2  0  0  0  0  0  0  0  0  0
    0.6676   -3.3061   -0.1042 C   0  0  0  0  0  0  0  0  0  0  0  0
    0.1532    0.6479   -0.5580 C   0  0  0  0  0  0  0  0  0  0  0  0
   -1.0080   -0.1775   -0.5060 C   0  0  0  0  0  0  0  0  0  0  0  0
   -0.0997    2.0324   -0.2229 C   0  0  0  0  0  0  0  0  0  0  0  0
   -2.2479    0.4995   -0.1640 C   0  0  0  0  0  0  0  0  0  0  0  0
    2.8565   -0.7315   -2.6384 C   0  0  0  0  0  0  0  0  0  0  0  0
    2.1690    1.3978   -0.5710 C   0  0  0  0  0  0  0  0  0  0  0  0
   -2.3352   -1.8641   -0.4715 C   0  0  0  0  0  0  0  0  0  0  0  0
    1.2846    2.4753   -0.2587 C   0  0  0  0  0  0  0  0  0  0  0  0
   -1.3025    2.6731    0.0615 C   0  0  0  0  0  0  0  0  0  0  0  0
   -2.4217    1.8577    0.0812 C   0  0  0  0  0  0  0  0  0  0  0  0
   -3.0970   -0.6975   -0.1664 C   0  0  0  0  0  0  0  0  0  0  0  0
   -1.6699    4.0790    0.4026 C   0  0  0  0  0  0  0  0  0  0  0  0
    2.4678   -1.4538    2.6107 C   0  0  0  0  0  0  0  0  0  0  0  0
    3.5610    1.6432   -0.5883 C   0  0  0  0  0  0  0  0  0  0  0  0
   -3.5811    2.6788    0.4215 C   0  0  0  0  0  0  0  0  0  0  0  0
    0.2466   -2.3460    2.4030 C   0  0  0  0  0  0  0  0  0  0  0  0
   -2.9423   -3.1370   -0.5162 C   0  0  0  0  0  0  0  0  0  0  0  0
    1.8367    3.7584   -0.0055 C   0  0  0  0  0  0  0  0  0  0  0  0
   -4.4807   -0.8769    0.0892 C   0  0  0  0  0  0  0  0  0  0  0  0
    4.8463   -2.2305    0.5255 C   0  0  0  0  0  0  0  0  0  0  0  0
    4.0641    2.9208   -0.3278 C   0  0  0  0  0  0  0  0  0  0  0  0
    3.2125    3.9714   -0.0450 C   0  0  0  0  0  0  0  0  0  0  0  0
    2.0098   -0.5304    3.7268 C   0  0  0  0  0  0  0  0  0  0  0  0
   -4.3069   -3.2600   -0.2587 C   0  0  0  0  0  0  0  0  0  0  0  0
   -5.0691   -2.1439    0.0400 C   0  0  0  0  0  0  0  0  0  0  0  0
    3.1129   -2.7659   -1.0544 H   0  0  0  0  0  0  0  0  0  0  0  0
    2.3946   -3.4569    1.0858 H   0  0  0  0  0  0  0  0  0  0  0  0
   -0.5203   -3.1203   -1.8509 H   0  0  0  0  0  0  0  0  0  0  0  0
    1.1296   -4.1386   -0.6605 H   0  0  0  0  0  0  0  0  0  0  0  0
   -0.0607   -3.8237    0.5256 H   0  0  0  0  0  0  0  0  0  0  0  0
    2.3950    0.0125   -3.2994 H   0  0  0  0  0  0  0  0  0  0  0  0
    2.9853   -1.6378   -3.2445 H   0  0  0  0  0  0  0  0  0  0  0  0
    3.8585   -0.3878   -2.3802 H   0  0  0  0  0  0  0  0  0  0  0  0
   -1.2085    4.4171    1.3335 H   0  0  0  0  0  0  0  0  0  0  0  0
   -1.4739    4.7723   -0.4187 H   0  0  0  0  0  0  0  0  0  0  0  0
    2.9052   -2.3606    3.0458 H   0  0  0  0  0  0  0  0  0  0  0  0
    3.2633   -0.8742    2.1541 H   0  0  0  0  0  0  0  0  0  0  0  0
    4.2779    0.8588   -0.7955 H   0  0  0  0  0  0  0  0  0  0  0  0
   -0.0931   -1.7191    3.2333 H   0  0  0  0  0  0  0  0  0  0  0  0
    0.4879   -3.3333    2.8146 H   0  0  0  0  0  0  0  0  0  0  0  0
   -0.6622   -2.4147    1.8037 H   0  0  0  0  0  0  0  0  0  0  0  0
   -2.3622   -4.0263   -0.7457 H   0  0  0  0  0  0  0  0  0  0  0  0
    1.1852    4.5953    0.2336 H   0  0  0  0  0  0  0  0  0  0  0  0
   -5.1162   -0.0330    0.3324 H   0  0  0  0  0  0  0  0  0  0  0  0
   -3.6928    4.7588    0.8448 H   0  0  0  0  0  0  0  0  0  0  0  0
    5.6483   -1.6757    1.0208 H   0  0  0  0  0  0  0  0  0  0  0  0
    5.2586   -2.6747   -0.3861 H   0  0  0  0  0  0  0  0  0  0  0  0
    4.5105   -3.0163    1.2059 H   0  0  0  0  0  0  0  0  0  0  0  0
    5.1380    3.0867   -0.3486 H   0  0  0  0  0  0  0  0  0  0  0  0
    3.6134    4.9606    0.1554 H   0  0  0  0  0  0  0  0  0  0  0  0
    1.4271    0.3154    3.3448 H   0  0  0  0  0  0  0  0  0  0  0  0
    1.4278   -1.0522    4.4926 H   0  0  0  0  0  0  0  0  0  0  0  0
    2.8840   -0.1136    4.2409 H   0  0  0  0  0  0  0  0  0  0  0  0
   -4.7735   -4.2407   -0.2925 H   0  0  0  0  0  0  0  0  0  0  0  0
   -6.1316   -2.2508    0.2403 H   0  0  0  0  0  0  0  0  0  0  0  0
  1  8  1  0  0  0  0
  1 11  1  0  0  0  0
  2  9  1  0  0  0  0
  2 32  1  0  0  0  0
  3 27  2  0  0  0  0
  4  8  1  0  0  0  0
  4 13  1  0  0  0  0
  4 18  1  0  0  0  0
  5 11  1  0  0  0  0
  5 14  1  0  0  0  0
  5 19  1  0  0  0  0
  6 10  1  0  0  0  0
  6 25  1  0  0  0  0
  6 28  1  0  0  0  0
  7 24  1  0  0  0  0
  7 27  1  0  0  0  0
  7 57  1  0  0  0  0
  8  9  1  0  0  0  0
  8 17  1  0  0  0  0
  9 10  1  0  0  0  0
  9 38  1  0  0  0  0
 10 12  1  0  0  0  0
 10 39  1  0  0  0  0
 11 12  1  0  0  0  0
 11 40  1  0  0  0  0
 12 41  1  0  0  0  0
 12 42  1  0  0  0  0
 13 14  2  0  0  0  0
 13 15  1  0  0  0  0
 14 16  1  0  0  0  0
 15 20  1  0  0  0  0
 15 21  2  0  0  0  0
 16 22  2  0  0  0  0
 16 23  1  0  0  0  0
 17 43  1  0  0  0  0
 17 44  1  0  0  0  0
 17 45  1  0  0  0  0
 18 20  1  0  0  0  0
 18 26  2  0  0  0  0
 19 23  1  0  0  0  0
 19 29  2  0  0  0  0
 20 30  2  0  0  0  0
 21 22  1  0  0  0  0
 21 24  1  0  0  0  0
 22 27  1  0  0  0  0
 23 31  2  0  0  0  0
 24 46  1  0  0  0  0
 24 47  1  0  0  0  0
 25 35  1  0  0  0  0
 25 48  1  0  0  0  0
 25 49  1  0  0  0  0
 26 33  1  0  0  0  0
 26 50  1  0  0  0  0
 28 51  1  0  0  0  0
 28 52  1  0  0  0  0
 28 53  1  0  0  0  0
 29 36  1  0  0  0  0
 29 54  1  0  0  0  0
 30 34  1  0  0  0  0
 30 55  1  0  0  0  0
 31 37  1  0  0  0  0
 31 56  1  0  0  0  0
 32 58  1  0  0  0  0
 32 59  1  0  0  0  0
 32 60  1  0  0  0  0
 33 34  2  0  0  0  0
 33 61  1  0  0  0  0
 34 62  1  0  0  0  0
 35 63  1  0  0  0  0
 35 64  1  0  0  0  0
 35 65  1  0  0  0  0
 36 37  2  0  0  0  0
 36 66  1  0  0  0  0
 37 67  1  0  0  0  0
M  END
> <PUBCHEM_COMPOUND_CID>
44353122

> <PUBCHEM_CONFORMER_RMSD>
0.8

> <PUBCHEM_CONFORMER_DIVERSEORDER>
1
2

> <PUBCHEM_MMFF94_PARTIAL_CHARGES>
41
1 -0.56
10 0.27
11 0.54
13 -0.05
14 -0.05
15 -0.01
16 -0.01
18 -0.15
19 -0.15
2 -0.56
21 -0.14
22 0.09
24 0.44
25 0.27
26 -0.15
27 0.54
28 0.27
29 -0.15
3 -0.57
30 -0.15
31 -0.15
32 0.28
33 -0.15
34 -0.15
36 -0.15
37 -0.15
4 -0.04
5 -0.04
50 0.15
54 0.15
55 0.15
56 0.15
57 0.37
6 -0.81
61 0.15
62 0.15
66 0.15
67 0.15
7 -0.73
8 0.54
9 0.28

> <PUBCHEM_EFFECTIVE_ROTOR_COUNT>
4.2

> <PUBCHEM_PHARMACOPHORE_FEATURES>
15
1 1 acceptor
1 2 acceptor
1 3 acceptor
1 4 cation
1 5 cation
1 6 cation
1 7 donor
5 4 13 15 18 20 rings
5 5 14 16 19 23 rings
5 7 21 22 24 27 rings
6 1 8 9 10 11 12 rings
6 13 14 15 16 21 22 rings
6 18 20 26 30 33 34 rings
6 19 23 29 31 36 37 rings
7 1 4 5 8 11 13 14 rings

> <PUBCHEM_HEAVY_ATOM_COUNT>
37

> <PUBCHEM_ATOM_DEF_STEREO_COUNT>
4

> <PUBCHEM_ATOM_UDEF_STEREO_COUNT>
0

> <PUBCHEM_BOND_DEF_STEREO_COUNT>
0

> <PUBCHEM_BOND_UDEF_STEREO_COUNT>
0

> <PUBCHEM_ISOTOPIC_ATOM_COUNT>
0

> <PUBCHEM_COMPONENT_COUNT>
1

> <PUBCHEM_CACTVS_TAUTO_COUNT>
2

> <PUBCHEM_CONFORMER_ID>
02A4C66200000001

> <PUBCHEM_MMFF94_ENERGY>
166.3274

> <PUBCHEM_FEATURE_SELFOVERLAP>
77.248

> <PUBCHEM_SHAPE_FINGERPRINT>
10006869 2 18342173431750268191
1100329 8 18338801087363438572
11578080 2 16630229373490417937
11607047 403 13605217025497487271
12107698 1 18410292527618776038
12156800 1 17051592134821676986
12788726 201 17977105983241509072
13140716 1 18412266112219851509
133893 2 16733255772922617202
13583140 156 16662632951855487365
14028597 1 17826207860831272520
140371 6 18195223569670323895
14787075 74 17900535988792088551
14790565 3 17835812172167563357
14955137 171 18047200652559869474
15513586 35 16749231677269940328
15968369 153 18053380187571279936
19315092 285 17170641593136694683
19319366 153 17465646193586950664
19591789 44 18125444369551359493
20600515 1 17983292621658899924
20642791 35 18340783606287657135
20691752 17 17676494955541168220
20764821 26 18411981339203850365
20905425 154 18342462585606225652
21033648 29 17559370505926982642
21421861 104 18335139812912242473
23558518 356 18335996336581182893
23559900 14 18271808964964723237
3383291 50 18265611177860887794
392239 28 18266182918467710155
4340502 62 17461151325570323787
5265222 85 16394085813521293742
57527573 199 17903362854693709220
5895379 119 18270681952666261859
59755656 215 18194404617542046965

> <PUBCHEM_SHAPE_MULTIPOLES>
723.91
8.05
5.79
1.92
4.51
4.18
-1.53
-0.57
0.08
0.34
-0.75
-1.98
-1.62
-1.48

> <PUBCHEM_SHAPE_SELFOVERLAP>
1655.456

> <PUBCHEM_SHAPE_VOLUME>
373.4

> <PUBCHEM_COORDINATE_TYPE>
2
5
10

$$$$
