135402910
  -OEChem-10062121593D

 31 33  0     0  0  0  0  0  0999 V2000
    1.0555   -1.4669    2.1695 Cl  0  0  0  0  0  0  0  0  0  0  0  0
    1.5443    1.9649   -2.0624 Cl  0  0  0  0  0  0  0  0  0  0  0  0
    5.8655   -0.4926   -0.0196 Cl  0  0  0  0  0  0  0  0  0  0  0  0
   -2.8525    2.8874    0.4453 S   0  0  0  0  0  0  0  0  0  0  0  0
   -4.4775   -0.0139   -0.0488 O   0  0  0  0  0  0  0  0  0  0  0  0
    0.0375    0.4539    0.0744 N   0  0  0  0  0  0  0  0  0  0  0  0
   -0.4413    1.6993    0.2747 N   0  0  0  0  0  0  0  0  0  0  0  0
   -0.7326   -1.8000   -0.3045 N   0  0  0  0  0  0  0  0  0  0  0  0
   -3.1327   -1.8899   -0.3441 N   0  0  0  0  0  0  0  0  0  0  0  0
   -0.9397   -0.4799   -0.0893 C   0  0  0  0  0  0  0  0  0  0  0  0
   -2.1304    0.2003    0.0103 C   0  0  0  0  0  0  0  0  0  0  0  0
    1.4137    0.2306    0.0518 C   0  0  0  0  0  0  0  0  0  0  0  0
   -1.7698    1.5358    0.2339 C   0  0  0  0  0  0  0  0  0  0  0  0
   -3.3667   -0.5262   -0.1221 C   0  0  0  0  0  0  0  0  0  0  0  0
   -1.8528   -2.4597   -0.4253 C   0  0  0  0  0  0  0  0  0  0  0  0
    1.9941   -0.6390    0.9751 C   0  0  0  0  0  0  0  0  0  0  0  0
    2.2100    0.8768   -0.8937 C   0  0  0  0  0  0  0  0  0  0  0  0
   -1.8380   -3.9435   -0.6573 C   0  0  0  0  0  0  0  0  0  0  0  0
    3.3707   -0.8625    0.9530 C   0  0  0  0  0  0  0  0  0  0  0  0
    3.5866    0.6533   -0.9159 C   0  0  0  0  0  0  0  0  0  0  0  0
    4.1670   -0.2164    0.0073 C   0  0  0  0  0  0  0  0  0  0  0  0
   -1.7110    4.2881    0.6878 C   0  0  0  0  0  0  0  0  0  0  0  0
   -3.9464   -2.4892   -0.4496 H   0  0  0  0  0  0  0  0  0  0  0  0
   -1.3764   -4.4331    0.2052 H   0  0  0  0  0  0  0  0  0  0  0  0
   -1.2342   -4.1620   -1.5430 H   0  0  0  0  0  0  0  0  0  0  0  0
   -2.8432   -4.3472   -0.8010 H   0  0  0  0  0  0  0  0  0  0  0  0
    3.8260   -1.5404    1.6720 H   0  0  0  0  0  0  0  0  0  0  0  0
    4.2101    1.1560   -1.6524 H   0  0  0  0  0  0  0  0  0  0  0  0
   -2.2962    5.2004    0.8310 H   0  0  0  0  0  0  0  0  0  0  0  0
   -1.0729    4.4191   -0.1904 H   0  0  0  0  0  0  0  0  0  0  0  0
   -1.0925    4.1295    1.5753 H   0  0  0  0  0  0  0  0  0  0  0  0
  1 16  1  0  0  0  0
  2 17  1  0  0  0  0
  3 21  1  0  0  0  0
  4 13  1  0  0  0  0
  4 22  1  0  0  0  0
  5 14  2  0  0  0  0
  6  7  1  0  0  0  0
  6 10  1  0  0  0  0
  6 12  1  0  0  0  0
  7 13  2  0  0  0  0
  8 10  1  0  0  0  0
  8 15  2  0  0  0  0
  9 14  1  0  0  0  0
  9 15  1  0  0  0  0
  9 23  1  0  0  0  0
 10 11  2  0  0  0  0
 11 13  1  0  0  0  0
 11 14  1  0  0  0  0
 12 16  2  0  0  0  0
 12 17  1  0  0  0  0
 15 18  1  0  0  0  0
 16 19  1  0  0  0  0
 17 20  2  0  0  0  0
 18 24  1  0  0  0  0
 18 25  1  0  0  0  0
 18 26  1  0  0  0  0
 19 21  2  0  0  0  0
 19 27  1  0  0  0  0
 20 21  1  0  0  0  0
 20 28  1  0  0  0  0
 22 29  1  0  0  0  0
 22 30  1  0  0  0  0
 22 31  1  0  0  0  0
M  END
> <PUBCHEM_COMPOUND_CID>
135402910

> <PUBCHEM_CONFORMER_RMSD>
0.6

> <PUBCHEM_CONFORMER_DIVERSEORDER>
1
3
2

> <PUBCHEM_MMFF94_PARTIAL_CHARGES>
25
1 -0.18
10 -0.03
11 -0.09
12 -0.02
13 0.34
14 0.72
15 0.45
16 0.18
17 0.18
18 0.06
19 -0.15
2 -0.18
20 -0.15
21 0.18
22 0.23
23 0.37
27 0.15
28 0.15
3 -0.18
4 -0.28
5 -0.57
6 0.59
7 -0.71
8 -0.58
9 -0.49

> <PUBCHEM_EFFECTIVE_ROTOR_COUNT>
2

> <PUBCHEM_PHARMACOPHORE_FEATURES>
7
1 22 hydrophobe
1 5 acceptor
1 7 acceptor
1 9 donor
5 6 7 10 11 13 rings
6 12 16 17 19 20 21 rings
6 8 9 10 11 14 15 rings

> <PUBCHEM_HEAVY_ATOM_COUNT>
22

> <PUBCHEM_ATOM_DEF_STEREO_COUNT>
0

> <PUBCHEM_ATOM_UDEF_STEREO_COUNT>
0

> <PUBCHEM_BOND_DEF_STEREO_COUNT>
0

> <PUBCHEM_BOND_UDEF_STEREO_COUNT>
0

> <PUBCHEM_ISOTOPIC_ATOM_COUNT>
0

> <PUBCHEM_COMPONENT_COUNT>
1

> <PUBCHEM_CACTVS_TAUTO_COUNT>
-1

> <PUBCHEM_CONFORMER_ID>
0812159E00000001

> <PUBCHEM_MMFF94_ENERGY>
68.7415

> <PUBCHEM_FEATURE_SELFOVERLAP>
35.641

> <PUBCHEM_SHAPE_FINGERPRINT>
10319926 262 18128233655285121626
10382601 240 17465956960219462712
10411042 1 18124873718737660431
10616163 171 18412263965010938742
11578080 2 17754417387499196156
12107183 9 17832983846224417290
12173636 292 18269266859658230541
12236239 1 18187083944944665618
12553582 1 18340197613539540163
12788726 201 18265634206457670468
13009979 54 18262807388064389014
13140716 1 18267025144596347155
13538477 17 18336260244830065647
13583140 156 17417514849269861626
13965767 371 17685782319866220768
14115302 16 18337954592227200727
14178342 30 18337375072970446618
14787075 74 17759234485753709184
14790565 3 18341627996974900705
15042514 8 18339929324207614087
15420108 30 17903353702292799244
16752209 62 18341035338394121145
16945 1 18413669123279091995
18186145 218 17241598593199223910
20510252 161 18202000971880612545
20600515 1 17916597556119736673
21267235 1 18334584550628858538
21634736 98 18116716407716323350
23175994 123 16487258776913601530
23402539 116 18272926124850118725
23419403 2 16461011428292356140
23557571 272 18060422396080114360
23559900 14 18272085054664114320
23598288 3 18263378008855696543
23598291 2 17970344819774266754
2748010 2 18052264986174750975
3084891 72 18341892987692451743
3091708 16 8986356393019079313
34797466 226 17774452676471217084
34934 24 18196649820481319285
350125 39 18053956043489936371
352729 6 18266462014697508229
474 4 17532097275003618580
67856867 119 18191585470657376516
6992083 37 18187931616712305356
77492 1 18186802465604500408
90525 40 18336546010595104007
9709674 26 18201445761695726486

> <PUBCHEM_SHAPE_MULTIPOLES>
436.42
7.93
3.88
1.31
7.77
0.63
0.1
-0.24
-0.17
-5.02
-0.17
0.8
0.09
-1.85

> <PUBCHEM_SHAPE_SELFOVERLAP>
916.217

> <PUBCHEM_SHAPE_VOLUME>
252.7

> <PUBCHEM_COORDINATE_TYPE>
2
5
10

$$$$
