24905186
  -OEChem-10052115143D

 35 37  0     0  0  0  0  0  0999 V2000
    4.4034    0.3507    2.7316 Br  0  0  0  0  0  0  0  0  0  0  0  0
    4.0305    0.3187   -2.4929 O   0  0  0  0  0  0  0  0  0  0  0  0
   -2.1030    0.9980    0.0157 N   0  0  0  0  0  0  0  0  0  0  0  0
   -0.8189    1.4004   -0.0121 N   0  0  0  0  0  0  0  0  0  0  0  0
   -3.4022   -1.0449    0.0523 N   0  0  0  0  0  0  0  0  0  0  0  0
   -1.9741   -3.0225    0.0338 N   0  0  0  0  0  0  0  0  0  0  0  0
    0.4088   -2.8924   -0.0137 N   0  0  0  0  0  0  0  0  0  0  0  0
   -3.1578    1.9836    0.0320 C   0  0  0  0  0  0  0  0  0  0  0  0
   -2.2494   -0.3574    0.0256 C   0  0  0  0  0  0  0  0  0  0  0  0
   -0.9682   -0.8801    0.0025 C   0  0  0  0  0  0  0  0  0  0  0  0
   -0.1329    0.2522   -0.0201 C   0  0  0  0  0  0  0  0  0  0  0  0
   -3.1432    2.8446   -1.2336 C   0  0  0  0  0  0  0  0  0  0  0  0
   -3.0922    2.8577    1.2868 C   0  0  0  0  0  0  0  0  0  0  0  0
    1.3078    0.2789   -0.0495 C   0  0  0  0  0  0  0  0  0  0  0  0
   -0.8505   -2.2660    0.0073 C   0  0  0  0  0  0  0  0  0  0  0  0
    1.9801    0.2858   -1.2716 C   0  0  0  0  0  0  0  0  0  0  0  0
    2.0299    0.2985    1.1439 C   0  0  0  0  0  0  0  0  0  0  0  0
   -3.1631   -2.3741    0.0543 C   0  0  0  0  0  0  0  0  0  0  0  0
    3.3744    0.3120   -1.3004 C   0  0  0  0  0  0  0  0  0  0  0  0
    3.4241    0.3249    1.1151 C   0  0  0  0  0  0  0  0  0  0  0  0
    4.0964    0.3316   -0.1071 C   0  0  0  0  0  0  0  0  0  0  0  0
   -4.1111    1.4418    0.0541 H   0  0  0  0  0  0  0  0  0  0  0  0
   -2.2305    3.4468   -1.3037 H   0  0  0  0  0  0  0  0  0  0  0  0
   -3.9987    3.5284   -1.2456 H   0  0  0  0  0  0  0  0  0  0  0  0
   -3.1986    2.2188   -2.1313 H   0  0  0  0  0  0  0  0  0  0  0  0
   -2.1776    3.4605    1.3136 H   0  0  0  0  0  0  0  0  0  0  0  0
   -3.1109    2.2413    2.1925 H   0  0  0  0  0  0  0  0  0  0  0  0
   -3.9467    3.5416    1.3264 H   0  0  0  0  0  0  0  0  0  0  0  0
    1.4198    0.2703   -2.2042 H   0  0  0  0  0  0  0  0  0  0  0  0
    1.5050    0.2927    2.0973 H   0  0  0  0  0  0  0  0  0  0  0  0
   -4.0419   -3.0096    0.0753 H   0  0  0  0  0  0  0  0  0  0  0  0
    1.2631   -2.3552   -0.0340 H   0  0  0  0  0  0  0  0  0  0  0  0
    0.4493   -3.9027   -0.0096 H   0  0  0  0  0  0  0  0  0  0  0  0
    5.1832    0.3519   -0.1406 H   0  0  0  0  0  0  0  0  0  0  0  0
    3.3768    0.3024   -3.2129 H   0  0  0  0  0  0  0  0  0  0  0  0
  1 20  1  0  0  0  0
  2 19  1  0  0  0  0
  2 35  1  0  0  0  0
  3  4  1  0  0  0  0
  3  8  1  0  0  0  0
  3  9  1  0  0  0  0
  4 11  2  0  0  0  0
  5  9  2  0  0  0  0
  5 18  1  0  0  0  0
  6 15  1  0  0  0  0
  6 18  2  0  0  0  0
  7 15  1  0  0  0  0
  7 32  1  0  0  0  0
  7 33  1  0  0  0  0
  8 12  1  0  0  0  0
  8 13  1  0  0  0  0
  8 22  1  0  0  0  0
  9 10  1  0  0  0  0
 10 11  1  0  0  0  0
 10 15  2  0  0  0  0
 11 14  1  0  0  0  0
 12 23  1  0  0  0  0
 12 24  1  0  0  0  0
 12 25  1  0  0  0  0
 13 26  1  0  0  0  0
 13 27  1  0  0  0  0
 13 28  1  0  0  0  0
 14 16  2  0  0  0  0
 14 17  1  0  0  0  0
 16 19  1  0  0  0  0
 16 29  1  0  0  0  0
 17 20  2  0  0  0  0
 17 30  1  0  0  0  0
 18 31  1  0  0  0  0
 19 21  2  0  0  0  0
 20 21  1  0  0  0  0
 21 34  1  0  0  0  0
M  END
> <PUBCHEM_COMPOUND_CID>
24905186

> <PUBCHEM_CONFORMER_RMSD>
0.6

> <PUBCHEM_CONFORMER_DIVERSEORDER>
2
4
5
3
6
1

> <PUBCHEM_MMFF94_PARTIAL_CHARGES>
25
1 -0.11
11 0.23
14 0.05
15 0.41
16 -0.15
17 -0.15
18 0.47
19 0.08
2 -0.53
20 0.11
21 -0.15
29 0.15
3 0.31
30 0.15
31 0.15
32 0.4
33 0.4
34 0.15
35 0.45
4 -0.71
5 -0.57
6 -0.62
7 -0.9
8 0.26
9 0.11

> <PUBCHEM_EFFECTIVE_ROTOR_COUNT>
2

> <PUBCHEM_PHARMACOPHORE_FEATURES>
11
1 1 hydrophobe
1 2 donor
1 4 acceptor
1 7 cation
1 7 donor
3 3 5 9 cation
3 5 6 18 cation
3 8 12 13 hydrophobe
5 3 4 9 10 11 rings
6 14 16 17 19 20 21 rings
6 5 6 9 10 15 18 rings

> <PUBCHEM_HEAVY_ATOM_COUNT>
21

> <PUBCHEM_ATOM_DEF_STEREO_COUNT>
0

> <PUBCHEM_ATOM_UDEF_STEREO_COUNT>
0

> <PUBCHEM_BOND_DEF_STEREO_COUNT>
0

> <PUBCHEM_BOND_UDEF_STEREO_COUNT>
0

> <PUBCHEM_ISOTOPIC_ATOM_COUNT>
0

> <PUBCHEM_COMPONENT_COUNT>
1

> <PUBCHEM_CACTVS_TAUTO_COUNT>
15

> <PUBCHEM_CONFORMER_ID>
017C05E200000002

> <PUBCHEM_MMFF94_ENERGY>
47.9127

> <PUBCHEM_FEATURE_SELFOVERLAP>
56.099

> <PUBCHEM_SHAPE_FINGERPRINT>
10165383 225 18124340227948942113
10319926 262 18198882826330170176
11582403 64 17054658380751705568
11725454 13 17343464926776738328
12160290 23 18410856585879228179
12173636 292 18338233761107524229
12236239 1 17676482891304970546
12500047 106 18412259506839354636
12549972 3 17774729666890017730
12553582 1 18192719070802270635
12788726 201 18116439317616593515
13140716 1 18122627416803315563
13583140 156 17915998284054797570
13878862 14 16968298116481246353
13965767 371 17900812760869664384
14022347 108 17974862966219017915
14178342 30 18410002226531426850
15842332 3 17748826345475904636
16752209 62 18408884065960680431
16945 1 18410576231857411207
173720 79 18041265579287998101
1741750 31 18341329981513968057
18186145 218 17917439687442127136
18915476 22 16558751239328788068
19049666 15 17917720067302339018
20510252 161 18271527593172404537
20600515 1 18051683644849601835
20693207 138 17559978647852606134
20871999 31 18268731518091938676
21065201 7 18412830196471718286
212916 134 18268415863443934240
22112679 90 17895187822859354932
22182313 1 17703793647837478700
22907989 373 18260544563180490349
22943178 12 17846502543218991732
2334 1 18338237042747205663
23419403 2 17057217142304979353
23526113 38 17418083300380252208
23557571 272 18202004365100052344
23559900 14 18200880578786072270
23598291 2 17603586326966391358
2748010 2 18193568766005038231
2838139 119 15194190153308720035
312423 11 17603868922866347178
350125 39 18194130620694410683
458136 41 17907316363969169425
495365 180 17560227017152950382
57527295 17 17202209503809033500
6049 1 17775297096393965160
633830 44 17702662129655061825
7615 1 17749101227598928660
77492 1 17676203602371583572
81228 2 18338804540917779003
84936 182 17624127205401887961
88987 49 18409728469753475628
9862522 239 17824527600510058749

> <PUBCHEM_SHAPE_MULTIPOLES>
407.34
8.09
3.07
1.75
5.14
0.98
-0.03
-2.92
-1.29
-5.19
-0.23
3.09
-0.76
0.21

> <PUBCHEM_SHAPE_SELFOVERLAP>
878.139

> <PUBCHEM_SHAPE_VOLUME>
232.3

> <PUBCHEM_COORDINATE_TYPE>
2
5
10

$$$$
