2727469
  -OEChem-10052115143D

 41 44  0     0  0  0  0  0  0999 V2000
    2.1239   -1.1649    0.0040 N   0  0  0  0  0  0  0  0  0  0  0  0
   -1.4050   -1.2224   -0.0420 N   0  0  0  0  0  0  0  0  0  0  0  0
    0.8577   -0.6804   -0.0158 N   0  0  0  0  0  0  0  0  0  0  0  0
    4.3146   -1.2469    0.0333 N   0  0  0  0  0  0  0  0  0  0  0  0
    3.8350   -2.5409    0.0351 N   0  0  0  0  0  0  0  0  0  0  0  0
   -1.8030    0.1480   -0.0555 C   0  0  0  0  0  0  0  0  0  0  0  0
   -3.2964    0.2997   -0.0265 C   0  0  0  0  0  0  0  0  0  0  0  0
   -0.0813   -1.5988   -0.0229 C   0  0  0  0  0  0  0  0  0  0  0  0
    3.2791   -0.4384    0.0146 C   0  0  0  0  0  0  0  0  0  0  0  0
    2.5205   -2.4809    0.0171 C   0  0  0  0  0  0  0  0  0  0  0  0
    3.3247    1.0039    0.0059 C   0  0  0  0  0  0  0  0  0  0  0  0
    0.2295   -3.0718   -0.0100 C   0  0  0  0  0  0  0  0  0  0  0  0
    1.5096   -3.4596    0.0096 C   0  0  0  0  0  0  0  0  0  0  0  0
   -3.9553    0.3884    1.1941 C   0  0  0  0  0  0  0  0  0  0  0  0
   -4.0052    0.3500   -1.2212 C   0  0  0  0  0  0  0  0  0  0  0  0
   -6.0614    0.5805    0.0262 C   0  0  0  0  0  0  0  0  0  0  0  0
   -5.3429    0.5292    1.2205 C   0  0  0  0  0  0  0  0  0  0  0  0
   -5.3927    0.4910   -1.1947 C   0  0  0  0  0  0  0  0  0  0  0  0
    3.3624    1.6921   -1.2066 C   0  0  0  0  0  0  0  0  0  0  0  0
    3.3318    1.7091    1.2092 C   0  0  0  0  0  0  0  0  0  0  0  0
   -7.5447    0.7321    0.0546 C   0  0  0  0  0  0  0  0  0  0  0  0
    3.4074    3.0862   -1.2159 C   0  0  0  0  0  0  0  0  0  0  0  0
    3.3768    3.1032    1.1998 C   0  0  0  0  0  0  0  0  0  0  0  0
    3.4146    3.7917   -0.0128 C   0  0  0  0  0  0  0  0  0  0  0  0
   -1.4074    0.6501   -0.9481 H   0  0  0  0  0  0  0  0  0  0  0  0
   -1.3741    0.6795    0.8042 H   0  0  0  0  0  0  0  0  0  0  0  0
   -2.1299   -1.9352   -0.0517 H   0  0  0  0  0  0  0  0  0  0  0  0
   -0.5881   -3.7822   -0.0166 H   0  0  0  0  0  0  0  0  0  0  0  0
    1.7745   -4.5106    0.0195 H   0  0  0  0  0  0  0  0  0  0  0  0
   -3.4057    0.3480    2.1304 H   0  0  0  0  0  0  0  0  0  0  0  0
   -3.4946    0.2796   -2.1777 H   0  0  0  0  0  0  0  0  0  0  0  0
   -5.8524    0.5994    2.1778 H   0  0  0  0  0  0  0  0  0  0  0  0
   -5.9414    0.5313   -2.1319 H   0  0  0  0  0  0  0  0  0  0  0  0
    3.3573    1.1564   -2.1529 H   0  0  0  0  0  0  0  0  0  0  0  0
    3.3026    1.1868    2.1626 H   0  0  0  0  0  0  0  0  0  0  0  0
   -8.0085    0.2448   -0.8098 H   0  0  0  0  0  0  0  0  0  0  0  0
   -7.9721    0.2689    0.9504 H   0  0  0  0  0  0  0  0  0  0  0  0
   -7.8142    1.7929    0.0454 H   0  0  0  0  0  0  0  0  0  0  0  0
    3.4366    3.6224   -2.1600 H   0  0  0  0  0  0  0  0  0  0  0  0
    3.3823    3.6529    2.1366 H   0  0  0  0  0  0  0  0  0  0  0  0
    3.4495    4.8772   -0.0200 H   0  0  0  0  0  0  0  0  0  0  0  0
  1  3  1  0  0  0  0
  1  9  1  0  0  0  0
  1 10  1  0  0  0  0
  2  6  1  0  0  0  0
  2  8  1  0  0  0  0
  2 27  1  0  0  0  0
  3  8  2  0  0  0  0
  4  5  1  0  0  0  0
  4  9  2  0  0  0  0
  5 10  2  0  0  0  0
  6  7  1  0  0  0  0
  6 25  1  0  0  0  0
  6 26  1  0  0  0  0
  7 14  2  0  0  0  0
  7 15  1  0  0  0  0
  8 12  1  0  0  0  0
  9 11  1  0  0  0  0
 10 13  1  0  0  0  0
 11 19  2  0  0  0  0
 11 20  1  0  0  0  0
 12 13  2  0  0  0  0
 12 28  1  0  0  0  0
 13 29  1  0  0  0  0
 14 17  1  0  0  0  0
 14 30  1  0  0  0  0
 15 18  2  0  0  0  0
 15 31  1  0  0  0  0
 16 17  2  0  0  0  0
 16 18  1  0  0  0  0
 16 21  1  0  0  0  0
 17 32  1  0  0  0  0
 18 33  1  0  0  0  0
 19 22  1  0  0  0  0
 19 34  1  0  0  0  0
 20 23  2  0  0  0  0
 20 35  1  0  0  0  0
 21 36  1  0  0  0  0
 21 37  1  0  0  0  0
 21 38  1  0  0  0  0
 22 24  2  0  0  0  0
 22 39  1  0  0  0  0
 23 24  1  0  0  0  0
 23 40  1  0  0  0  0
 24 41  1  0  0  0  0
M  END
> <PUBCHEM_COMPOUND_CID>
2727469

> <PUBCHEM_CONFORMER_RMSD>
0.8

> <PUBCHEM_CONFORMER_DIVERSEORDER>
1
16
20
13
4
19
11
17
12
9
21
8
10
5
14
7
18
6
15
2
3

> <PUBCHEM_MMFF94_PARTIAL_CHARGES>
36
1 0.51
10 0.14
11 0.05
12 -0.14
13 -0.11
14 -0.15
15 -0.15
16 -0.14
17 -0.15
18 -0.15
19 -0.15
2 -0.82
20 -0.15
21 0.14
22 -0.15
23 -0.15
24 -0.15
27 0.4
28 0.15
29 0.15
3 -0.65
30 0.15
31 0.15
32 0.15
33 0.15
34 0.15
35 0.15
39 0.15
4 -0.34
40 0.15
41 0.15
5 -0.34
6 0.51
7 -0.14
8 0.49
9 0.13

> <PUBCHEM_EFFECTIVE_ROTOR_COUNT>
4

> <PUBCHEM_PHARMACOPHORE_FEATURES>
8
1 2 donor
3 1 4 9 cation
3 1 5 10 cation
3 2 3 8 cation
5 1 4 5 9 10 rings
6 1 3 8 10 12 13 rings
6 11 19 20 22 23 24 rings
6 7 14 15 16 17 18 rings

> <PUBCHEM_HEAVY_ATOM_COUNT>
24

> <PUBCHEM_ATOM_DEF_STEREO_COUNT>
0

> <PUBCHEM_ATOM_UDEF_STEREO_COUNT>
0

> <PUBCHEM_BOND_DEF_STEREO_COUNT>
0

> <PUBCHEM_BOND_UDEF_STEREO_COUNT>
0

> <PUBCHEM_ISOTOPIC_ATOM_COUNT>
0

> <PUBCHEM_COMPONENT_COUNT>
1

> <PUBCHEM_CACTVS_TAUTO_COUNT>
2

> <PUBCHEM_CONFORMER_ID>
00299E2D00000001

> <PUBCHEM_MMFF94_ENERGY>
62.3576

> <PUBCHEM_FEATURE_SELFOVERLAP>
43.212

> <PUBCHEM_SHAPE_FINGERPRINT>
10162869 55 18341316852337008055
10165383 225 18261119608052181756
10411042 1 17906170655710788818
10483366 6 18263101997884989612
10615611 76 17774460278156811721
10763959 59 18264204721193227933
10937287 8 18194965381784427428
1200032 147 17968668241037214916
12035758 1 18191280777208133552
12166972 35 18201155430179810410
12236239 1 17702941432032000003
12616971 3 18130780132351291239
13533116 47 18411983546674888405
13583140 156 16951100929302202235
13878862 14 18263344967667384637
13955234 65 18336824195732829155
13965767 371 17971453329802171900
14170010 4 18412542094566048930
14251764 75 18120659286183647156
14429380 56 18337659859709983469
14528608 73 18342738533577055133
14848178 96 18340205296808706393
14849402 71 18410576184786837864
151778 21 18335707195082463628
15322687 12 18341614862431555568
15342168 16 18336264651709124229
1768 85 18410299150753680881
17810953 82 18409729594771474844
17844677 252 18338239241970921421
19427546 62 18409730668903890323
1979834 28 18186804707609662589
21033648 144 18337662100907302535
21033648 29 17749096769549450389
21033650 10 15697460856898380107
21049683 118 17896303861458158915
21344244 78 17974549326717745962
21860390 5 18272656693093770102
22122407 14 18199481982816341601
23559900 14 18408885109669622499
23845131 108 18262519311459915091
3178227 256 18334862675758068418
397830 11 18041293153457905137
44555599 121 18128543666025287137
474 4 18411135857094552443
5104073 3 18334856151781873931
513532 50 17632301190044527868
5312544 6 18413673517294620449
53794403 172 18335987579100434740
57527573 199 17487311971813301184
6034566 193 17900549178774103837
7808743 9 17759246580540117340
9849439 229 18124588940930995456
9999458 23 18334577919331495422

> <PUBCHEM_SHAPE_MULTIPOLES>
469
14.43
4.14
1.11
27.68
0.31
0
-8.26
0.13
-8.25
0.02
0.3
-0.72
-0.08

> <PUBCHEM_SHAPE_SELFOVERLAP>
1034.129

> <PUBCHEM_SHAPE_VOLUME>
253.5

> <PUBCHEM_COORDINATE_TYPE>
2
5
10

$$$$
