71553085
  -OEChem-10062121573D

 70 73  0     0  0  0  0  0  0999 V2000
    5.1604   -2.5171    1.4061 Cl  0  0  0  0  0  0  0  0  0  0  0  0
    7.6936    0.1253   -2.5596 Cl  0  0  0  0  0  0  0  0  0  0  0  0
   -2.1309    2.9835    2.2304 O   0  0  0  0  0  0  0  0  0  0  0  0
   -2.8837   -3.8470   -0.3954 N   0  0  0  0  0  0  0  0  0  0  0  0
   -0.3056   -0.1625    1.2108 N   0  0  0  0  0  0  0  0  0  0  0  0
   -5.5450    1.1007   -1.7798 N   0  0  0  0  0  0  0  0  0  0  0  0
   -2.6990    1.5352    0.5109 N   0  0  0  0  0  0  0  0  0  0  0  0
    1.6327    0.9328    0.4883 N   0  0  0  0  0  0  0  0  0  0  0  0
    1.6059    3.3174    0.1415 N   0  0  0  0  0  0  0  0  0  0  0  0
    3.5553    2.0668   -0.2352 N   0  0  0  0  0  0  0  0  0  0  0  0
   -1.5842   -3.4637    0.1557 C   0  0  0  0  0  0  0  0  0  0  0  0
    0.3415   -1.4599    1.2165 C   0  0  0  0  0  0  0  0  0  0  0  0
   -0.9052   -2.4539   -0.7746 C   0  0  0  0  0  0  0  0  0  0  0  0
   -1.7470   -2.8911    1.5678 C   0  0  0  0  0  0  0  0  0  0  0  0
    0.4429   -1.9975   -0.2131 C   0  0  0  0  0  0  0  0  0  0  0  0
   -0.4078   -2.4232    2.1416 C   0  0  0  0  0  0  0  0  0  0  0  0
   -4.1238    1.5340    0.7564 C   0  0  0  0  0  0  0  0  0  0  0  0
   -4.7477    0.1883    0.3790 C   0  0  0  0  0  0  0  0  0  0  0  0
   -4.8164    2.6662   -0.0057 C   0  0  0  0  0  0  0  0  0  0  0  0
   -4.8241   -0.0070   -1.1385 C   0  0  0  0  0  0  0  0  0  0  0  0
   -4.8908    2.3881   -1.5103 C   0  0  0  0  0  0  0  0  0  0  0  0
   -3.5166   -4.8631    0.4451 C   0  0  0  0  0  0  0  0  0  0  0  0
   -2.7339   -4.3382   -1.7651 C   0  0  0  0  0  0  0  0  0  0  0  0
    0.3355    1.0085    0.8519 C   0  0  0  0  0  0  0  0  0  0  0  0
   -0.3840    2.1855    0.8850 C   0  0  0  0  0  0  0  0  0  0  0  0
   -1.7829    2.2692    1.2733 C   0  0  0  0  0  0  0  0  0  0  0  0
   -5.6551    0.8739   -3.2207 C   0  0  0  0  0  0  0  0  0  0  0  0
    0.3096    3.3199    0.5158 C   0  0  0  0  0  0  0  0  0  0  0  0
    2.1975    2.1077    0.1504 C   0  0  0  0  0  0  0  0  0  0  0  0
    4.4823    1.0138   -0.3462 C   0  0  0  0  0  0  0  0  0  0  0  0
    5.5089    1.0837   -1.2879 C   0  0  0  0  0  0  0  0  0  0  0  0
    4.3750   -0.0997    0.4871 C   0  0  0  0  0  0  0  0  0  0  0  0
    5.2940   -1.1433    0.3785 C   0  0  0  0  0  0  0  0  0  0  0  0
    6.4279    0.0401   -1.3966 C   0  0  0  0  0  0  0  0  0  0  0  0
    6.3205   -1.0734   -0.5634 C   0  0  0  0  0  0  0  0  0  0  0  0
   -0.9337   -4.3487    0.2218 H   0  0  0  0  0  0  0  0  0  0  0  0
    1.3532   -1.3527    1.6284 H   0  0  0  0  0  0  0  0  0  0  0  0
   -0.6880   -2.8814   -1.7593 H   0  0  0  0  0  0  0  0  0  0  0  0
   -1.5510   -1.5806   -0.9337 H   0  0  0  0  0  0  0  0  0  0  0  0
   -2.4580   -2.0572    1.5651 H   0  0  0  0  0  0  0  0  0  0  0  0
   -2.1370   -3.6394    2.2661 H   0  0  0  0  0  0  0  0  0  0  0  0
    1.1270   -2.8564   -0.2131 H   0  0  0  0  0  0  0  0  0  0  0  0
    0.8817   -1.2569   -0.8914 H   0  0  0  0  0  0  0  0  0  0  0  0
   -0.5756   -1.9578    3.1207 H   0  0  0  0  0  0  0  0  0  0  0  0
    0.2227   -3.3049    2.3156 H   0  0  0  0  0  0  0  0  0  0  0  0
   -1.3192   -0.1606    1.2010 H   0  0  0  0  0  0  0  0  0  0  0  0
   -4.2700    1.6970    1.8310 H   0  0  0  0  0  0  0  0  0  0  0  0
   -5.7624    0.1356    0.7951 H   0  0  0  0  0  0  0  0  0  0  0  0
   -4.1799   -0.6358    0.8243 H   0  0  0  0  0  0  0  0  0  0  0  0
   -4.2992    3.6184    0.1629 H   0  0  0  0  0  0  0  0  0  0  0  0
   -5.8361    2.7866    0.3834 H   0  0  0  0  0  0  0  0  0  0  0  0
   -3.8158   -0.1160   -1.5579 H   0  0  0  0  0  0  0  0  0  0  0  0
   -5.3521   -0.9494   -1.3300 H   0  0  0  0  0  0  0  0  0  0  0  0
   -3.8830    2.4147   -1.9449 H   0  0  0  0  0  0  0  0  0  0  0  0
   -5.4647    3.1986   -1.9763 H   0  0  0  0  0  0  0  0  0  0  0  0
   -4.4274   -5.2434   -0.0335 H   0  0  0  0  0  0  0  0  0  0  0  0
   -3.8585   -4.4509    1.3992 H   0  0  0  0  0  0  0  0  0  0  0  0
   -2.8602   -5.7202    0.6349 H   0  0  0  0  0  0  0  0  0  0  0  0
   -3.6736   -4.7817   -2.1175 H   0  0  0  0  0  0  0  0  0  0  0  0
   -1.9559   -5.1050   -1.8566 H   0  0  0  0  0  0  0  0  0  0  0  0
   -2.5366   -3.5265   -2.4723 H   0  0  0  0  0  0  0  0  0  0  0  0
   -2.3525    1.0272   -0.2980 H   0  0  0  0  0  0  0  0  0  0  0  0
   -6.2365    1.6736   -3.6929 H   0  0  0  0  0  0  0  0  0  0  0  0
   -6.1877   -0.0620   -3.4233 H   0  0  0  0  0  0  0  0  0  0  0  0
   -4.6748    0.8256   -3.7085 H   0  0  0  0  0  0  0  0  0  0  0  0
   -0.1633    4.2971    0.5047 H   0  0  0  0  0  0  0  0  0  0  0  0
    3.8806    2.9549   -0.6050 H   0  0  0  0  0  0  0  0  0  0  0  0
    5.5909    1.9524   -1.9378 H   0  0  0  0  0  0  0  0  0  0  0  0
    3.6161   -0.1614    1.2605 H   0  0  0  0  0  0  0  0  0  0  0  0
    7.0371   -1.8876   -0.6483 H   0  0  0  0  0  0  0  0  0  0  0  0
  1 33  1  0  0  0  0
  2 34  1  0  0  0  0
  3 26  2  0  0  0  0
  4 11  1  0  0  0  0
  4 22  1  0  0  0  0
  4 23  1  0  0  0  0
  5 12  1  0  0  0  0
  5 24  1  0  0  0  0
  5 46  1  0  0  0  0
  6 20  1  0  0  0  0
  6 21  1  0  0  0  0
  6 27  1  0  0  0  0
  7 17  1  0  0  0  0
  7 26  1  0  0  0  0
  7 62  1  0  0  0  0
  8 24  2  0  0  0  0
  8 29  1  0  0  0  0
  9 28  1  0  0  0  0
  9 29  2  0  0  0  0
 10 29  1  0  0  0  0
 10 30  1  0  0  0  0
 10 67  1  0  0  0  0
 11 13  1  0  0  0  0
 11 14  1  0  0  0  0
 11 36  1  0  0  0  0
 12 15  1  0  0  0  0
 12 16  1  0  0  0  0
 12 37  1  0  0  0  0
 13 15  1  0  0  0  0
 13 38  1  0  0  0  0
 13 39  1  0  0  0  0
 14 16  1  0  0  0  0
 14 40  1  0  0  0  0
 14 41  1  0  0  0  0
 15 42  1  0  0  0  0
 15 43  1  0  0  0  0
 16 44  1  0  0  0  0
 16 45  1  0  0  0  0
 17 18  1  0  0  0  0
 17 19  1  0  0  0  0
 17 47  1  0  0  0  0
 18 20  1  0  0  0  0
 18 48  1  0  0  0  0
 18 49  1  0  0  0  0
 19 21  1  0  0  0  0
 19 50  1  0  0  0  0
 19 51  1  0  0  0  0
 20 52  1  0  0  0  0
 20 53  1  0  0  0  0
 21 54  1  0  0  0  0
 21 55  1  0  0  0  0
 22 56  1  0  0  0  0
 22 57  1  0  0  0  0
 22 58  1  0  0  0  0
 23 59  1  0  0  0  0
 23 60  1  0  0  0  0
 23 61  1  0  0  0  0
 24 25  1  0  0  0  0
 25 26  1  0  0  0  0
 25 28  2  0  0  0  0
 27 63  1  0  0  0  0
 27 64  1  0  0  0  0
 27 65  1  0  0  0  0
 28 66  1  0  0  0  0
 30 31  2  0  0  0  0
 30 32  1  0  0  0  0
 31 34  1  0  0  0  0
 31 68  1  0  0  0  0
 32 33  2  0  0  0  0
 32 69  1  0  0  0  0
 33 35  1  0  0  0  0
 34 35  2  0  0  0  0
 35 70  1  0  0  0  0
M  END
> <PUBCHEM_COMPOUND_CID>
71553085

> <PUBCHEM_CONFORMER_RMSD>
1

> <PUBCHEM_CONFORMER_DIVERSEORDER>
1
69
219
122
211
50
91
154
187
133
150
34
156
153
147
151
37
170
63
223
125
192
11
169
178
176
28
112
109
62
83
216
121
137
143
132
215
61
123
209
226
165
227
174
126
127
168
152
48
78
212
98
182
161
175
185
80
203
118
99
26
200
59
166
120
188
75
110
224
51
141
158
220
134
129
171
197
179
140
93
13
167
186
82
194
108
106
130
208
207
27
124
199
52
25
117
149
180
184
221
206
159
225
94
40
53
46
162
22
218
31
44
111
20
14
136
213
77
47
30
183
131
41
86
33
114
7
191
23
81
49
15
24
202
70
177
17
88
79
157
102
205
107
35
101
56
144
85
163
29
173
172
142
164
10
84
90
2
3
196
16
198
60
8
222
89
115
12
55
4
138
58
19
74
103
190
42
72
217
189
181
113
67
9
128
204
119
139
135
97
65
193
76
38
214
95
116
148
32
87
64
160
104
201
68
57
21
210
92
155
73
71
36
66
45
18
100
43
54
195
6
146
145
39
5
105
96

> <PUBCHEM_MMFF94_PARTIAL_CHARGES>
36
1 -0.18
10 -0.6
11 0.27
12 0.37
17 0.3
2 -0.18
20 0.27
21 0.27
22 0.27
23 0.27
24 0.41
25 0.09
26 0.54
27 0.27
28 0.16
29 0.72
3 -0.57
30 0.1
31 -0.15
32 -0.15
33 0.18
34 0.18
35 -0.15
4 -0.81
46 0.4
5 -0.87
6 -0.81
62 0.37
66 0.15
67 0.4
68 0.15
69 0.15
7 -0.73
70 0.15
8 -0.62
9 -0.62

> <PUBCHEM_EFFECTIVE_ROTOR_COUNT>
10.4

> <PUBCHEM_PHARMACOPHORE_FEATURES>
11
1 10 donor
1 3 acceptor
1 4 cation
1 5 donor
1 6 cation
1 7 donor
4 8 9 10 29 cation
6 11 12 13 14 15 16 rings
6 30 31 32 33 34 35 rings
6 6 17 18 19 20 21 rings
6 8 9 24 25 28 29 rings

> <PUBCHEM_HEAVY_ATOM_COUNT>
35

> <PUBCHEM_ATOM_DEF_STEREO_COUNT>
0

> <PUBCHEM_ATOM_UDEF_STEREO_COUNT>
0

> <PUBCHEM_BOND_DEF_STEREO_COUNT>
0

> <PUBCHEM_BOND_UDEF_STEREO_COUNT>
0

> <PUBCHEM_ISOTOPIC_ATOM_COUNT>
0

> <PUBCHEM_COMPONENT_COUNT>
1

> <PUBCHEM_CACTVS_TAUTO_COUNT>
21

> <PUBCHEM_CONFORMER_ID>
0443D03D00000001

> <PUBCHEM_MMFF94_ENERGY>
93.9078

> <PUBCHEM_FEATURE_SELFOVERLAP>
55.823

> <PUBCHEM_SHAPE_FINGERPRINT>
11513181 2 17910402680212969870
11828422 8 15579745867383392853
11991303 11 18260270746004029615
13690498 29 18193568988816219822
13911987 19 18261394382252246869
14289585 56 17531512209973667789
14415361 349 18196942064012680198
14930077 153 17313962921032731820
14931854 50 18341595015999435437
15131766 46 15794020059224800190
15183329 4 18411699859578920116
15274700 21 17750244750252790979
17492 54 18335698299972844849
19311894 1 18342454885352225825
19958102 18 18409440371631577580
20775438 99 17626069269375127837
21703447 108 17910389821091312088
21792965 302 18189903196613660788
21814621 53 14907611217419203816
22440779 20 16736952507120039634
23559900 14 18342741870915208056
23576562 1 18042416883731751420
3383291 50 18272653458609115418
38695281 34 18266743480815200833
4058900 60 18042964260360252529
44802255 64 17385738992901639686
563151 248 16987738830620775033
563151 97 18123477076919526585
57527295 17 18042117812527281682

> <PUBCHEM_SHAPE_MULTIPOLES>
683.29
15.7
5.64
2.16
19.06
5.28
1.13
-2.84
11.78
-6.82
-0.79
-1.04
-0.01
-0.77

> <PUBCHEM_SHAPE_SELFOVERLAP>
1417.896

> <PUBCHEM_SHAPE_VOLUME>
389.5

> <PUBCHEM_COORDINATE_TYPE>
2
5
10

$$$$
