44317538
  -OEChem-10062121583D

 36 39  0     0  0  0  0  0  0999 V2000
   -0.1843   -4.4470   -1.5018 Cl  0  0  0  0  0  0  0  0  0  0  0  0
   -3.1015   -0.1648    1.0728 S   0  0  0  0  0  0  0  0  0  0  0  0
   -3.8156    0.6163    2.0655 O   0  0  0  0  0  0  0  0  0  0  0  0
   -3.7805   -1.2430    0.3801 O   0  0  0  0  0  0  0  0  0  0  0  0
    1.0892    0.5339    1.2718 N   0  0  0  0  0  0  0  0  0  0  0  0
   -1.6309   -0.7400    1.7626 N   0  0  0  0  0  0  0  0  0  0  0  0
    4.4363    1.8887    0.5191 N   0  0  0  0  0  0  0  0  0  0  0  0
    0.6063   -0.6287    0.7179 C   0  0  0  0  0  0  0  0  0  0  0  0
    1.6007   -1.1299   -0.1231 C   0  0  0  0  0  0  0  0  0  0  0  0
    2.7088   -0.2269   -0.0599 C   0  0  0  0  0  0  0  0  0  0  0  0
   -0.6258   -1.2676    0.8978 C   0  0  0  0  0  0  0  0  0  0  0  0
    2.3579    0.7989    0.8171 C   0  0  0  0  0  0  0  0  0  0  0  0
    1.3519   -2.3306   -0.8209 C   0  0  0  0  0  0  0  0  0  0  0  0
   -0.8483   -2.4555    0.1961 C   0  0  0  0  0  0  0  0  0  0  0  0
    0.1244   -2.9809   -0.6510 C   0  0  0  0  0  0  0  0  0  0  0  0
    3.9747   -0.1847   -0.6649 C   0  0  0  0  0  0  0  0  0  0  0  0
    3.2174    1.8511    1.1053 C   0  0  0  0  0  0  0  0  0  0  0  0
   -2.5101    0.9728   -0.1474 C   0  0  0  0  0  0  0  0  0  0  0  0
    4.7806    0.8955   -0.3313 C   0  0  0  0  0  0  0  0  0  0  0  0
   -2.2435    0.5299   -1.4429 C   0  0  0  0  0  0  0  0  0  0  0  0
   -2.3100    2.3121    0.1867 C   0  0  0  0  0  0  0  0  0  0  0  0
   -1.7768    1.4263   -2.4045 C   0  0  0  0  0  0  0  0  0  0  0  0
   -1.8436    3.2087   -0.7748 C   0  0  0  0  0  0  0  0  0  0  0  0
   -1.5769    2.7656   -2.0703 C   0  0  0  0  0  0  0  0  0  0  0  0
    0.5783    1.1157    1.9214 H   0  0  0  0  0  0  0  0  0  0  0  0
    2.1106   -2.7409   -1.4823 H   0  0  0  0  0  0  0  0  0  0  0  0
   -1.2728   -0.2034    2.5633 H   0  0  0  0  0  0  0  0  0  0  0  0
   -1.7882   -2.9886    0.3240 H   0  0  0  0  0  0  0  0  0  0  0  0
    4.3125   -0.9485   -1.3559 H   0  0  0  0  0  0  0  0  0  0  0  0
    2.9674    2.6580    1.7816 H   0  0  0  0  0  0  0  0  0  0  0  0
    5.7722    0.9907   -0.7635 H   0  0  0  0  0  0  0  0  0  0  0  0
   -2.3933   -0.5077   -1.7269 H   0  0  0  0  0  0  0  0  0  0  0  0
   -2.5030    2.6770    1.1914 H   0  0  0  0  0  0  0  0  0  0  0  0
   -1.5687    1.0814   -3.4131 H   0  0  0  0  0  0  0  0  0  0  0  0
   -1.6854    4.2510   -0.5143 H   0  0  0  0  0  0  0  0  0  0  0  0
   -1.2127    3.4634   -2.8185 H   0  0  0  0  0  0  0  0  0  0  0  0
  1 15  1  0  0  0  0
  2  3  2  0  0  0  0
  2  4  2  0  0  0  0
  2  6  1  0  0  0  0
  2 18  1  0  0  0  0
  5  8  1  0  0  0  0
  5 12  1  0  0  0  0
  5 25  1  0  0  0  0
  6 11  1  0  0  0  0
  6 27  1  0  0  0  0
  7 17  2  0  0  0  0
  7 19  1  0  0  0  0
  8  9  2  0  0  0  0
  8 11  1  0  0  0  0
  9 10  1  0  0  0  0
  9 13  1  0  0  0  0
 10 12  2  0  0  0  0
 10 16  1  0  0  0  0
 11 14  2  0  0  0  0
 12 17  1  0  0  0  0
 13 15  2  0  0  0  0
 13 26  1  0  0  0  0
 14 15  1  0  0  0  0
 14 28  1  0  0  0  0
 16 19  2  0  0  0  0
 16 29  1  0  0  0  0
 17 30  1  0  0  0  0
 18 20  2  0  0  0  0
 18 21  1  0  0  0  0
 19 31  1  0  0  0  0
 20 22  1  0  0  0  0
 20 32  1  0  0  0  0
 21 23  2  0  0  0  0
 21 33  1  0  0  0  0
 22 24  2  0  0  0  0
 22 34  1  0  0  0  0
 23 24  1  0  0  0  0
 23 35  1  0  0  0  0
 24 36  1  0  0  0  0
M  END
> <PUBCHEM_COMPOUND_CID>
44317538

> <PUBCHEM_CONFORMER_RMSD>
0.6

> <PUBCHEM_CONFORMER_DIVERSEORDER>
1
7
17
26
21
9
14
16
19
18
23
24
4
5
25
8
11
2
3
6
22
10
13
15
12
20

> <PUBCHEM_MMFF94_PARTIAL_CHARGES>
34
1 -0.18
11 0.2
12 -0.15
13 -0.15
14 -0.15
15 0.18
16 -0.15
17 0.16
18 -0.01
19 0.16
2 1.45
20 -0.15
21 -0.15
22 -0.15
23 -0.15
24 -0.15
25 0.27
26 0.15
27 0.42
28 0.15
29 0.15
3 -0.65
30 0.15
31 0.15
32 0.15
33 0.15
34 0.15
35 0.15
36 0.15
4 -0.65
5 0.03
6 -0.76
7 -0.62
8 -0.15

> <PUBCHEM_EFFECTIVE_ROTOR_COUNT>
3

> <PUBCHEM_PHARMACOPHORE_FEATURES>
10
1 3 acceptor
1 4 acceptor
1 5 cation
1 5 donor
1 6 donor
1 7 acceptor
5 5 8 9 10 12 rings
6 18 20 21 22 23 24 rings
6 7 10 12 16 17 19 rings
6 8 9 11 13 14 15 rings

> <PUBCHEM_HEAVY_ATOM_COUNT>
24

> <PUBCHEM_ATOM_DEF_STEREO_COUNT>
0

> <PUBCHEM_ATOM_UDEF_STEREO_COUNT>
0

> <PUBCHEM_BOND_DEF_STEREO_COUNT>
0

> <PUBCHEM_BOND_UDEF_STEREO_COUNT>
0

> <PUBCHEM_ISOTOPIC_ATOM_COUNT>
0

> <PUBCHEM_COMPONENT_COUNT>
1

> <PUBCHEM_CACTVS_TAUTO_COUNT>
2

> <PUBCHEM_CONFORMER_ID>
02A43B6200000001

> <PUBCHEM_MMFF94_ENERGY>
49.7277

> <PUBCHEM_FEATURE_SELFOVERLAP>
50.951

> <PUBCHEM_SHAPE_FINGERPRINT>
10165383 225 18270136663602543944
10498660 4 18187636999198861893
10871710 139 17398402308847980340
11221954 11 17971744484996610981
11595378 159 17750499836628486496
121448 382 17844500345250391342
12156800 1 14670680497339120813
12160290 23 17841405305844454938
128993 33 17755864117278520861
13583140 156 17604129498643270960
13642711 20 17841168657710127206
13681431 1 17476906962029090782
13994607 96 17531516689423492942
17492 54 17828444224463768399
18981168 100 17389385905377577437
20600515 1 17096669728217295827
21524375 3 18334846187262288370
23114952 82 18050858714580951431
23536364 44 17406580021237481582
23557571 272 17822870705464627859
238 59 18123722315098061165
25019877 29 17487353761286194639
3380486 77 16605980967079100706
35225 105 17461964848062717452
3524813 1 18411140263915926608
469060 322 17823688866448263587
57527585 21 18336250255074317829
621550 34 18337686208843870051
6287921 2 18265917815933076149
7399639 24 18337399257541270291
81228 2 17834100219329723346
9862522 239 18336249202938425314
9925002 15 17834122222394128055
9981440 41 18049968200335875177

> <PUBCHEM_SHAPE_MULTIPOLES>
472.95
6.85
4.14
1.84
5
3.03
0.39
-4.58
-1.11
-0.72
2.25
-1.53
-0.43
1.6

> <PUBCHEM_SHAPE_SELFOVERLAP>
1035.702

> <PUBCHEM_SHAPE_VOLUME>
258.3

> <PUBCHEM_COORDINATE_TYPE>
2
5
10

$$$$
