24905169
  -OEChem-10052115143D

 38 40  0     0  0  0  0  0  0999 V2000
    4.3053    0.3620   -1.5268 O   0  0  0  0  0  0  0  0  0  0  0  0
   -2.1616    1.0136   -0.0600 N   0  0  0  0  0  0  0  0  0  0  0  0
   -0.8891    1.4008    0.1462 N   0  0  0  0  0  0  0  0  0  0  0  0
   -3.4587   -1.0126   -0.3327 N   0  0  0  0  0  0  0  0  0  0  0  0
   -2.0580   -3.0053   -0.1982 N   0  0  0  0  0  0  0  0  0  0  0  0
    0.2994   -2.9029    0.1614 N   0  0  0  0  0  0  0  0  0  0  0  0
   -3.1990    2.0107   -0.1778 C   0  0  0  0  0  0  0  0  0  0  0  0
   -2.3144   -0.3391   -0.1348 C   0  0  0  0  0  0  0  0  0  0  0  0
   -1.0504   -0.8762    0.0348 C   0  0  0  0  0  0  0  0  0  0  0  0
   -0.2174    0.2456    0.2030 C   0  0  0  0  0  0  0  0  0  0  0  0
   -3.3414    2.8295    1.1076 C   0  0  0  0  0  0  0  0  0  0  0  0
   -2.9670    2.9247   -1.3836 C   0  0  0  0  0  0  0  0  0  0  0  0
    1.2077    0.2555    0.4175 C   0  0  0  0  0  0  0  0  0  0  0  0
   -0.9422   -2.2624   -0.0020 C   0  0  0  0  0  0  0  0  0  0  0  0
    2.0771    0.3060   -0.6721 C   0  0  0  0  0  0  0  0  0  0  0  0
    1.7175    0.2145    1.7153 C   0  0  0  0  0  0  0  0  0  0  0  0
   -3.2302   -2.3436   -0.3493 C   0  0  0  0  0  0  0  0  0  0  0  0
    3.4563    0.3152   -0.4639 C   0  0  0  0  0  0  0  0  0  0  0  0
    3.0966    0.2237    1.9233 C   0  0  0  0  0  0  0  0  0  0  0  0
    3.9661    0.2741    0.8338 C   0  0  0  0  0  0  0  0  0  0  0  0
    5.7033    0.3662   -1.2416 C   0  0  0  0  0  0  0  0  0  0  0  0
   -4.1451    1.4805   -0.3403 H   0  0  0  0  0  0  0  0  0  0  0  0
   -2.4413    3.4192    1.3144 H   0  0  0  0  0  0  0  0  0  0  0  0
   -3.5156    2.1754    1.9690 H   0  0  0  0  0  0  0  0  0  0  0  0
   -4.1868    3.5218    1.0331 H   0  0  0  0  0  0  0  0  0  0  0  0
   -2.0524    3.5179   -1.2726 H   0  0  0  0  0  0  0  0  0  0  0  0
   -3.8047    3.6189   -1.5091 H   0  0  0  0  0  0  0  0  0  0  0  0
   -2.8734    2.3386   -2.3046 H   0  0  0  0  0  0  0  0  0  0  0  0
    1.6896    0.3373   -1.6883 H   0  0  0  0  0  0  0  0  0  0  0  0
    1.0532    0.1743    2.5754 H   0  0  0  0  0  0  0  0  0  0  0  0
   -4.1032   -2.9684   -0.5045 H   0  0  0  0  0  0  0  0  0  0  0  0
    3.4925    0.1913    2.9342 H   0  0  0  0  0  0  0  0  0  0  0  0
    1.1476   -2.3761    0.3088 H   0  0  0  0  0  0  0  0  0  0  0  0
    0.3335   -3.9130    0.1276 H   0  0  0  0  0  0  0  0  0  0  0  0
    5.0252    0.2781    1.0675 H   0  0  0  0  0  0  0  0  0  0  0  0
    6.2288    0.4055   -2.2014 H   0  0  0  0  0  0  0  0  0  0  0  0
    6.0153   -0.5584   -0.7441 H   0  0  0  0  0  0  0  0  0  0  0  0
    5.9967    1.2595   -0.6797 H   0  0  0  0  0  0  0  0  0  0  0  0
  1 18  1  0  0  0  0
  1 21  1  0  0  0  0
  2  3  1  0  0  0  0
  2  7  1  0  0  0  0
  2  8  1  0  0  0  0
  3 10  2  0  0  0  0
  4  8  2  0  0  0  0
  4 17  1  0  0  0  0
  5 14  1  0  0  0  0
  5 17  2  0  0  0  0
  6 14  1  0  0  0  0
  6 33  1  0  0  0  0
  6 34  1  0  0  0  0
  7 11  1  0  0  0  0
  7 12  1  0  0  0  0
  7 22  1  0  0  0  0
  8  9  1  0  0  0  0
  9 10  1  0  0  0  0
  9 14  2  0  0  0  0
 10 13  1  0  0  0  0
 11 23  1  0  0  0  0
 11 24  1  0  0  0  0
 11 25  1  0  0  0  0
 12 26  1  0  0  0  0
 12 27  1  0  0  0  0
 12 28  1  0  0  0  0
 13 15  2  0  0  0  0
 13 16  1  0  0  0  0
 15 18  1  0  0  0  0
 15 29  1  0  0  0  0
 16 19  2  0  0  0  0
 16 30  1  0  0  0  0
 17 31  1  0  0  0  0
 18 20  2  0  0  0  0
 19 20  1  0  0  0  0
 19 32  1  0  0  0  0
 20 35  1  0  0  0  0
 21 36  1  0  0  0  0
 21 37  1  0  0  0  0
 21 38  1  0  0  0  0
M  END
> <PUBCHEM_COMPOUND_CID>
24905169

> <PUBCHEM_CONFORMER_RMSD>
0.6

> <PUBCHEM_CONFORMER_DIVERSEORDER>
1
12
7
8
4
10
6
11
5
3
9
2

> <PUBCHEM_MMFF94_PARTIAL_CHARGES>
25
1 -0.36
10 0.23
13 0.05
14 0.41
15 -0.15
16 -0.15
17 0.47
18 0.08
19 -0.15
2 0.31
20 -0.15
21 0.28
29 0.15
3 -0.71
30 0.15
31 0.15
32 0.15
33 0.4
34 0.4
35 0.15
4 -0.57
5 -0.62
6 -0.9
7 0.26
8 0.11

> <PUBCHEM_EFFECTIVE_ROTOR_COUNT>
3

> <PUBCHEM_PHARMACOPHORE_FEATURES>
10
1 1 acceptor
1 3 acceptor
1 6 cation
1 6 donor
3 2 4 8 cation
3 4 5 17 cation
3 7 11 12 hydrophobe
5 2 3 8 9 10 rings
6 13 15 16 18 19 20 rings
6 4 5 8 9 14 17 rings

> <PUBCHEM_HEAVY_ATOM_COUNT>
21

> <PUBCHEM_ATOM_DEF_STEREO_COUNT>
0

> <PUBCHEM_ATOM_UDEF_STEREO_COUNT>
0

> <PUBCHEM_BOND_DEF_STEREO_COUNT>
0

> <PUBCHEM_BOND_UDEF_STEREO_COUNT>
0

> <PUBCHEM_ISOTOPIC_ATOM_COUNT>
0

> <PUBCHEM_COMPONENT_COUNT>
1

> <PUBCHEM_CACTVS_TAUTO_COUNT>
5

> <PUBCHEM_CONFORMER_ID>
017C05D100000001

> <PUBCHEM_MMFF94_ENERGY>
59.354

> <PUBCHEM_FEATURE_SELFOVERLAP>
51.025

> <PUBCHEM_SHAPE_FINGERPRINT>
10165383 225 18269287759285812033
10319926 262 18126818643812520792
11582403 64 16263977600222830168
11725454 13 16697184094976719608
11796584 16 18200037240572941190
12173636 292 18337660928313015957
12186901 62 18413111666699612220
12236239 1 17676480675033280618
12390115 104 18200887162639192921
12500047 106 18341047441569802268
12553582 1 18192145117179540899
12714826 92 18342461490405356826
12788726 201 18260827158943536155
12954195 1 18272657831069984487
13140716 1 18122619720290492915
13878862 14 16969980365029523977
14022347 108 17974275822989047227
15842332 3 17749936813486158002
16752209 62 18337378426780995083
16945 1 18339069488929153155
18186145 218 17917992758965473640
18785283 64 17255687391837941497
19049666 15 17917711283967663826
20510252 161 18271799181234613721
20693207 138 17845944055900121212
20871999 31 18412552037125338268
21065201 7 18341608239918831194
21618674 53 17967543367331669792
22907989 373 18188473757738737821
23175994 123 16988293053000073504
2334 1 18267294353547302395
23366157 5 17826506669900785763
23419403 2 16912814986063120241
23493267 7 18343304743110038704
23557571 272 18202293510582366204
23559900 14 18202284655187521958
23598291 2 17676758799998758538
2748010 2 18194684766064998047
312425 83 18045254650676262932
350125 39 18267585702601241531
458136 41 17980770342069327289
559249 180 18336828585832899062
57527295 17 17130986456186753236
59755656 215 18201721739130005423
59755656 520 17702122286925886633
6049 1 17845651576879796408
633830 44 17702934834245250689
7615 1 17677031517431872016
77492 1 17676757739015177514
7808743 9 18336550425943401316
81228 2 18338792446363707129
84936 182 17552904145126853665
88987 49 18337659876256836496
90525 40 18260547822612267751
9862522 239 17896587393660997573

> <PUBCHEM_SHAPE_MULTIPOLES>
401.4
8.6
3.1
1.35
9.19
0.91
-0.26
-3.19
2.4
-5.31
0.32
1.38
-0.61
-0.28

> <PUBCHEM_SHAPE_SELFOVERLAP>
875.574

> <PUBCHEM_SHAPE_VOLUME>
218.3

> <PUBCHEM_COORDINATE_TYPE>
2
5
10

$$$$
