49830657
  -OEChem-10062121543D

 72 75  0     0  0  0  0  0  0999 V2000
    1.1483    4.5364   -1.5117 O   0  0  0  0  0  0  0  0  0  0  0  0
    0.0388   -3.4060   -0.2303 O   0  0  0  0  0  0  0  0  0  0  0  0
   -1.0985    3.4604   -3.2063 O   0  0  0  0  0  0  0  0  0  0  0  0
    3.0441   -0.3040    0.2438 N   0  0  0  0  0  0  0  0  0  0  0  0
    4.3294   -0.6260    0.0191 N   0  0  0  0  0  0  0  0  0  0  0  0
    0.7776   -1.2398    0.2499 N   0  0  0  0  0  0  0  0  0  0  0  0
   -0.7525    3.8001   -0.3678 N   0  0  0  0  0  0  0  0  0  0  0  0
   -1.4726   -1.7231    0.3756 N   0  0  0  0  0  0  0  0  0  0  0  0
   -1.9708    2.9319    3.0541 N   0  0  0  0  0  0  0  0  0  0  0  0
    5.4991   -2.6530   -0.6366 C   0  0  0  0  0  0  0  0  0  0  0  0
    4.2649   -1.9184   -0.3120 C   0  0  0  0  0  0  0  0  0  0  0  0
    5.7303   -3.8643    0.3304 C   0  0  0  0  0  0  0  0  0  0  0  0
    6.8344   -1.8246   -0.5651 C   0  0  0  0  0  0  0  0  0  0  0  0
    5.4683   -3.2329   -2.0922 C   0  0  0  0  0  0  0  0  0  0  0  0
    2.9486   -2.4177   -0.2989 C   0  0  0  0  0  0  0  0  0  0  0  0
    2.1769   -1.3420    0.0671 C   0  0  0  0  0  0  0  0  0  0  0  0
    2.7160    0.9988    0.6226 C   0  0  0  0  0  0  0  0  0  0  0  0
    1.8560    1.7598   -0.1694 C   0  0  0  0  0  0  0  0  0  0  0  0
    1.5272    3.0614    0.2095 C   0  0  0  0  0  0  0  0  0  0  0  0
    3.2472    1.5396    1.7937 C   0  0  0  0  0  0  0  0  0  0  0  0
    0.6313    3.8558   -0.6159 C   0  0  0  0  0  0  0  0  0  0  0  0
   -1.3169    2.9846    0.6985 C   0  0  0  0  0  0  0  0  0  0  0  0
   -1.7168    4.5570   -1.1634 C   0  0  0  0  0  0  0  0  0  0  0  0
    2.0584    3.6020    1.3807 C   0  0  0  0  0  0  0  0  0  0  0  0
    2.9182    2.8411    2.1728 C   0  0  0  0  0  0  0  0  0  0  0  0
   -0.1897   -2.2459    0.0965 C   0  0  0  0  0  0  0  0  0  0  0  0
   -1.4135    3.7684    1.9991 C   0  0  0  0  0  0  0  0  0  0  0  0
   -2.7077   -2.3822    0.3423 C   0  0  0  0  0  0  0  0  0  0  0  0
   -2.2012    3.7587   -2.3600 C   0  0  0  0  0  0  0  0  0  0  0  0
   -3.8987   -1.7064    0.0307 C   0  0  0  0  0  0  0  0  0  0  0  0
   -5.1178   -2.4251    0.0126 C   0  0  0  0  0  0  0  0  0  0  0  0
   -2.7183   -3.7469    0.6319 C   0  0  0  0  0  0  0  0  0  0  0  0
   -3.9067   -0.3332   -0.2633 C   0  0  0  0  0  0  0  0  0  0  0  0
   -5.1098   -3.7984    0.3065 C   0  0  0  0  0  0  0  0  0  0  0  0
   -3.9171   -4.4536    0.6140 C   0  0  0  0  0  0  0  0  0  0  0  0
   -6.3088   -1.7494   -0.2990 C   0  0  0  0  0  0  0  0  0  0  0  0
   -5.0994    0.3221   -0.5708 C   0  0  0  0  0  0  0  0  0  0  0  0
   -6.2982   -0.3847   -0.5885 C   0  0  0  0  0  0  0  0  0  0  0  0
    6.6493   -4.4079    0.0835 H   0  0  0  0  0  0  0  0  0  0  0  0
    4.8988   -4.5764    0.2765 H   0  0  0  0  0  0  0  0  0  0  0  0
    5.8054   -3.5217    1.3690 H   0  0  0  0  0  0  0  0  0  0  0  0
    6.9896   -1.4222    0.4428 H   0  0  0  0  0  0  0  0  0  0  0  0
    6.8054   -0.9782   -1.2612 H   0  0  0  0  0  0  0  0  0  0  0  0
    7.7059   -2.4386   -0.8193 H   0  0  0  0  0  0  0  0  0  0  0  0
    6.3884   -3.7795   -2.3282 H   0  0  0  0  0  0  0  0  0  0  0  0
    4.6283   -3.9247   -2.2235 H   0  0  0  0  0  0  0  0  0  0  0  0
    5.3517   -2.4281   -2.8273 H   0  0  0  0  0  0  0  0  0  0  0  0
    2.6177   -3.4209   -0.5244 H   0  0  0  0  0  0  0  0  0  0  0  0
    0.4414   -0.3290    0.5474 H   0  0  0  0  0  0  0  0  0  0  0  0
    1.4446    1.3503   -1.0900 H   0  0  0  0  0  0  0  0  0  0  0  0
    3.9159    0.9595    2.4251 H   0  0  0  0  0  0  0  0  0  0  0  0
   -2.3093    2.6389    0.3841 H   0  0  0  0  0  0  0  0  0  0  0  0
   -0.7171    2.0814    0.8466 H   0  0  0  0  0  0  0  0  0  0  0  0
   -2.5554    4.8643   -0.5300 H   0  0  0  0  0  0  0  0  0  0  0  0
   -1.2141    5.4638   -1.5192 H   0  0  0  0  0  0  0  0  0  0  0  0
    1.8199    4.6191    1.6807 H   0  0  0  0  0  0  0  0  0  0  0  0
    3.3328    3.2626    3.0838 H   0  0  0  0  0  0  0  0  0  0  0  0
   -0.4388    4.1386    2.3219 H   0  0  0  0  0  0  0  0  0  0  0  0
   -2.0541    4.6474    1.8647 H   0  0  0  0  0  0  0  0  0  0  0  0
   -1.5002   -0.7115    0.4420 H   0  0  0  0  0  0  0  0  0  0  0  0
   -2.6637    2.8162   -2.0503 H   0  0  0  0  0  0  0  0  0  0  0  0
   -2.9303    4.3397   -2.9329 H   0  0  0  0  0  0  0  0  0  0  0  0
   -1.8239   -4.2908    0.9176 H   0  0  0  0  0  0  0  0  0  0  0  0
   -3.0045    0.2700   -0.2789 H   0  0  0  0  0  0  0  0  0  0  0  0
   -6.0354   -4.3704    0.3006 H   0  0  0  0  0  0  0  0  0  0  0  0
   -2.0894    3.4878    3.9000 H   0  0  0  0  0  0  0  0  0  0  0  0
   -2.9023    2.6159    2.7869 H   0  0  0  0  0  0  0  0  0  0  0  0
   -3.9269   -5.5141    0.8489 H   0  0  0  0  0  0  0  0  0  0  0  0
   -7.2575   -2.2818   -0.3189 H   0  0  0  0  0  0  0  0  0  0  0  0
   -5.0915    1.3841   -0.7992 H   0  0  0  0  0  0  0  0  0  0  0  0
   -7.2262    0.1259   -0.8286 H   0  0  0  0  0  0  0  0  0  0  0  0
   -1.4464    2.9540   -3.9600 H   0  0  0  0  0  0  0  0  0  0  0  0
  1 21  2  0  0  0  0
  2 26  2  0  0  0  0
  3 29  1  0  0  0  0
  3 72  1  0  0  0  0
  4  5  1  0  0  0  0
  4 16  1  0  0  0  0
  4 17  1  0  0  0  0
  5 11  2  0  0  0  0
  6 16  1  0  0  0  0
  6 26  1  0  0  0  0
  6 49  1  0  0  0  0
  7 21  1  0  0  0  0
  7 22  1  0  0  0  0
  7 23  1  0  0  0  0
  8 26  1  0  0  0  0
  8 28  1  0  0  0  0
  8 60  1  0  0  0  0
  9 27  1  0  0  0  0
  9 66  1  0  0  0  0
  9 67  1  0  0  0  0
 10 11  1  0  0  0  0
 10 12  1  0  0  0  0
 10 13  1  0  0  0  0
 10 14  1  0  0  0  0
 11 15  1  0  0  0  0
 12 39  1  0  0  0  0
 12 40  1  0  0  0  0
 12 41  1  0  0  0  0
 13 42  1  0  0  0  0
 13 43  1  0  0  0  0
 13 44  1  0  0  0  0
 14 45  1  0  0  0  0
 14 46  1  0  0  0  0
 14 47  1  0  0  0  0
 15 16  2  0  0  0  0
 15 48  1  0  0  0  0
 17 18  1  0  0  0  0
 17 20  2  0  0  0  0
 18 19  2  0  0  0  0
 18 50  1  0  0  0  0
 19 21  1  0  0  0  0
 19 24  1  0  0  0  0
 20 25  1  0  0  0  0
 20 51  1  0  0  0  0
 22 27  1  0  0  0  0
 22 52  1  0  0  0  0
 22 53  1  0  0  0  0
 23 29  1  0  0  0  0
 23 54  1  0  0  0  0
 23 55  1  0  0  0  0
 24 25  2  0  0  0  0
 24 56  1  0  0  0  0
 25 57  1  0  0  0  0
 27 58  1  0  0  0  0
 27 59  1  0  0  0  0
 28 30  1  0  0  0  0
 28 32  2  0  0  0  0
 29 61  1  0  0  0  0
 29 62  1  0  0  0  0
 30 31  1  0  0  0  0
 30 33  2  0  0  0  0
 31 34  1  0  0  0  0
 31 36  2  0  0  0  0
 32 35  1  0  0  0  0
 32 63  1  0  0  0  0
 33 37  1  0  0  0  0
 33 64  1  0  0  0  0
 34 35  2  0  0  0  0
 34 65  1  0  0  0  0
 35 68  1  0  0  0  0
 36 38  1  0  0  0  0
 36 69  1  0  0  0  0
 37 38  2  0  0  0  0
 37 70  1  0  0  0  0
 38 71  1  0  0  0  0
M  END
> <PUBCHEM_COMPOUND_CID>
49830657

> <PUBCHEM_CONFORMER_RMSD>
1.2

> <PUBCHEM_CONFORMER_DIVERSEORDER>
1
38
68
74
34
59
70
9
60
37
56
75
17
76
45
27
90
58
32
52
42
91
65
31
72
88
44
67
89
21
86
47
61
62
85
73
35
41
82
43
29
77
81
66
55
40
50
84
36
22
51
10
48
92
57
46
80
39
24
93
63
25
69
78
87
83
19
33
79
8
16
4
13
18
54
53
28
11
71
3
20
49
14
2
30
26
64
5
23
15
7
6
12

> <PUBCHEM_MMFF94_PARTIAL_CHARGES>
50
1 -0.57
10 0.18
11 0.11
15 -0.15
16 -0.09
17 -0.02
18 -0.15
19 0.09
2 -0.57
20 -0.15
21 0.54
22 0.3
23 0.3
24 -0.15
25 -0.15
26 0.69
27 0.27
28 0.12
29 0.28
3 -0.68
32 -0.15
33 -0.15
34 -0.15
35 -0.15
36 -0.15
37 -0.15
38 -0.15
4 0.59
48 0.15
49 0.37
5 -0.71
50 0.15
51 0.15
56 0.15
57 0.15
6 -0.49
60 0.37
63 0.15
64 0.15
65 0.15
66 0.36
67 0.36
68 0.15
69 0.15
7 -0.66
70 0.15
71 0.15
72 0.4
8 -0.55
9 -0.99

> <PUBCHEM_EFFECTIVE_ROTOR_COUNT>
12

> <PUBCHEM_PHARMACOPHORE_FEATURES>
14
1 1 acceptor
1 2 acceptor
1 3 acceptor
1 3 donor
1 5 acceptor
1 6 donor
1 8 donor
1 9 cation
1 9 donor
4 10 12 13 14 hydrophobe
5 4 5 11 15 16 rings
6 17 18 19 20 24 25 rings
6 28 30 31 32 34 35 rings
6 30 31 33 36 37 38 rings

> <PUBCHEM_HEAVY_ATOM_COUNT>
38

> <PUBCHEM_ATOM_DEF_STEREO_COUNT>
0

> <PUBCHEM_ATOM_UDEF_STEREO_COUNT>
0

> <PUBCHEM_BOND_DEF_STEREO_COUNT>
0

> <PUBCHEM_BOND_UDEF_STEREO_COUNT>
0

> <PUBCHEM_ISOTOPIC_ATOM_COUNT>
0

> <PUBCHEM_COMPONENT_COUNT>
1

> <PUBCHEM_CACTVS_TAUTO_COUNT>
7

> <PUBCHEM_CONFORMER_ID>
02F85B0100000001

> <PUBCHEM_MMFF94_ENERGY>
125.4869

> <PUBCHEM_FEATURE_SELFOVERLAP>
71.124

> <PUBCHEM_SHAPE_FINGERPRINT>
10815517 723 18198637539983179363
11093857 5 18193820562341619496
11093857 51 17326613004073504405
11513181 2 18057322992675402999
12925494 130 18410569618335567971
13692115 27 18271533005364681234
14068700 675 18202000993228465169
14114211 80 16390458086942478289
150020 26 17979068615965493553
15320467 1 17760366991483354749
15400415 2 17185316990230389997
16067689 391 17123941748118639182
16993438 75 17901112918995959881
19311894 1 17910678657404584370
20764821 26 17328860998619608593
21049683 271 18268159828486718038
21133410 127 17609769061370774989
23559900 14 18412541050436250979
3103668 31 18190744128648028453
4144715 1 18263928920137925563
42626532 9 17897176912134913171
4435113 14 17557716759319570182
46939830 39 17967541155143938469
9961470 85 18342170082061419001

> <PUBCHEM_SHAPE_MULTIPOLES>
734.53
13.67
8.46
1.87
0.12
4.95
0.22
-19.22
2.33
0.59
0.84
-0.26
2.96
3.33

> <PUBCHEM_SHAPE_SELFOVERLAP>
1577.855

> <PUBCHEM_SHAPE_VOLUME>
404.3

> <PUBCHEM_COORDINATE_TYPE>
2
5
10

$$$$
