5216867
  -OEChem-10062121533D

 42 45  0     0  0  0  0  0  0999 V2000
   -5.3172    1.3637   -0.5786 S   0  0  0  0  0  0  0  0  0  0  0  0
   -2.7015    1.9674   -0.1682 O   0  0  0  0  0  0  0  0  0  0  0  0
    1.5683   -0.4533   -0.8447 O   0  0  0  0  0  0  0  0  0  0  0  0
    7.6525   -1.6195    0.3139 O   0  5  0  0  0  0  0  0  0  0  0  0
    5.7926   -2.7843    0.2594 O   0  0  0  0  0  0  0  0  0  0  0  0
   -4.9262   -1.2659   -0.9808 N   0  0  0  0  0  0  0  0  0  0  0  0
   -3.7060   -0.4413    0.6840 N   0  0  0  0  0  0  0  0  0  0  0  0
    1.4136    1.7078   -0.0293 N   0  0  0  0  0  0  0  0  0  0  0  0
    0.0617    1.7083   -0.1099 N   0  0  0  0  0  0  0  0  0  0  0  0
    6.4043   -1.6901    0.2062 N   0  3  0  0  0  0  0  0  0  0  0  0
   -4.2042   -2.3262   -0.4960 C   0  0  0  0  0  0  0  0  0  0  0  0
   -3.4505   -1.7858    0.5423 C   0  0  0  0  0  0  0  0  0  0  0  0
   -4.5943   -0.1632   -0.2438 C   0  0  0  0  0  0  0  0  0  0  0  0
   -4.1474   -3.6706   -0.8653 C   0  0  0  0  0  0  0  0  0  0  0  0
   -2.5832   -2.6216    1.2659 C   0  0  0  0  0  0  0  0  0  0  0  0
   -3.2791   -4.4880   -0.1343 C   0  0  0  0  0  0  0  0  0  0  0  0
   -2.5100   -3.9749    0.9126 C   0  0  0  0  0  0  0  0  0  0  0  0
   -3.9678    2.3998   -0.0650 C   0  0  0  0  0  0  0  0  0  0  0  0
    3.5756    0.6284   -0.2883 C   0  0  0  0  0  0  0  0  0  0  0  0
   -1.9324    2.9850    0.3007 C   0  0  0  0  0  0  0  0  0  0  0  0
   -4.0561    3.6511    0.4494 C   0  0  0  0  0  0  0  0  0  0  0  0
    4.2728   -0.5475   -0.1052 C   0  0  0  0  0  0  0  0  0  0  0  0
   -2.7183    4.0434    0.6931 C   0  0  0  0  0  0  0  0  0  0  0  0
    5.6611   -0.4947    0.0189 C   0  0  0  0  0  0  0  0  0  0  0  0
    4.2034    1.8548   -0.3530 C   0  0  0  0  0  0  0  0  0  0  0  0
    6.3206    0.7329   -0.0429 C   0  0  0  0  0  0  0  0  0  0  0  0
    5.5918    1.9076   -0.2289 C   0  0  0  0  0  0  0  0  0  0  0  0
    2.0967    0.5720   -0.4217 C   0  0  0  0  0  0  0  0  0  0  0  0
   -0.5209    2.8046    0.3097 C   0  0  0  0  0  0  0  0  0  0  0  0
   -5.5862   -1.2935   -1.7463 H   0  0  0  0  0  0  0  0  0  0  0  0
   -4.7453   -4.0664   -1.6784 H   0  0  0  0  0  0  0  0  0  0  0  0
   -1.9812   -2.2324    2.0807 H   0  0  0  0  0  0  0  0  0  0  0  0
   -3.2019   -5.5428   -0.3868 H   0  0  0  0  0  0  0  0  0  0  0  0
   -1.8438   -4.6350    1.4622 H   0  0  0  0  0  0  0  0  0  0  0  0
   -4.9508    4.2284    0.6350 H   0  0  0  0  0  0  0  0  0  0  0  0
    3.7407   -1.4936   -0.0540 H   0  0  0  0  0  0  0  0  0  0  0  0
   -2.3743    4.9823    1.1035 H   0  0  0  0  0  0  0  0  0  0  0  0
    3.6765    2.7866   -0.5291 H   0  0  0  0  0  0  0  0  0  0  0  0
    7.4009    0.8124    0.0478 H   0  0  0  0  0  0  0  0  0  0  0  0
    6.1062    2.8626   -0.2847 H   0  0  0  0  0  0  0  0  0  0  0  0
    0.0835    3.6469    0.6945 H   0  0  0  0  0  0  0  0  0  0  0  0
    1.8540    2.5292    0.3711 H   0  0  0  0  0  0  0  0  0  0  0  0
  1 13  1  0  0  0  0
  1 18  1  0  0  0  0
  2 18  1  0  0  0  0
  2 20  1  0  0  0  0
  3 28  2  0  0  0  0
  4 10  1  0  0  0  0
  5 10  2  0  0  0  0
  6 11  1  0  0  0  0
  6 13  1  0  0  0  0
  6 30  1  0  0  0  0
  7 12  1  0  0  0  0
  7 13  2  0  0  0  0
  8  9  1  0  0  0  0
  8 28  1  0  0  0  0
  8 42  1  0  0  0  0
  9 29  2  3  0  0  0
 10 24  1  0  0  0  0
 11 12  1  0  0  0  0
 11 14  2  0  0  0  0
 12 15  2  0  0  0  0
 14 16  1  0  0  0  0
 14 31  1  0  0  0  0
 15 17  1  0  0  0  0
 15 32  1  0  0  0  0
 16 17  2  0  0  0  0
 16 33  1  0  0  0  0
 17 34  1  0  0  0  0
 18 21  2  0  0  0  0
 19 22  2  0  0  0  0
 19 25  1  0  0  0  0
 19 28  1  0  0  0  0
 20 23  2  0  0  0  0
 20 29  1  0  0  0  0
 21 23  1  0  0  0  0
 21 35  1  0  0  0  0
 22 24  1  0  0  0  0
 22 36  1  0  0  0  0
 23 37  1  0  0  0  0
 24 26  2  0  0  0  0
 25 27  2  0  0  0  0
 25 38  1  0  0  0  0
 26 27  1  0  0  0  0
 26 39  1  0  0  0  0
 27 40  1  0  0  0  0
 29 41  1  0  0  0  0
M  CHG  2   4  -1  10   1
M  END
> <PUBCHEM_COMPOUND_CID>
5216867

> <PUBCHEM_CONFORMER_RMSD>
0.8

> <PUBCHEM_CONFORMER_DIVERSEORDER>
1
191
180
187
78
90
106
148
97
110
96
188
23
129
196
65
193
34
102
82
59
167
88
107
157
143
176
189
200
81
201
185
170
44
108
114
159
3
48
169
168
146
206
86
72
150
46
12
175
138
113
182
181
144
2
22
35
40
145
30
125
151
194
140
209
178
192
162
17
203
171
132
11
74
172
183
160
111
202
118
207
155
51
43
52
139
204
136
87
67
197
92
212
98
210
47
83
199
53
58
184
124
154
117
163
123
186
116
177
94
120
39
60
156
9
101
13
99
38
137
27
149
198
122
103
164
165
134
64
208
37
112
104
195
131
127
141
62
142
18
61
6
158
109
174
14
49
4
152
91
93
179
190
173
147
161
133
213
73
77
21
26
10
76
128
115
42
153
36
80
69
205
68
166
7
41
33
71
32
135
66
54
63
70
75
25
5
56
15
50
31
55
100
45
130
89
95
85
20
211
105
24
8
121
119
57
79
16
84
28
126
19
29

> <PUBCHEM_MMFF94_PARTIAL_CHARGES>
42
1 -0.11
10 0.91
11 -0.15
12 0.23
13 0.24
14 -0.15
15 -0.15
16 -0.15
17 -0.15
18 0.2
19 0.09
2 -0.28
20 0.05
21 -0.15
22 -0.15
23 -0.15
24 0.13
25 -0.15
26 -0.15
27 -0.15
28 0.54
29 0.47
3 -0.57
30 0.27
31 0.15
32 0.15
33 0.15
34 0.15
35 0.15
36 0.15
37 0.15
38 0.15
39 0.15
4 -0.52
40 0.15
41 0.06
42 0.37
5 -0.52
6 0.03
7 -0.57
8 -0.37
9 -0.51

> <PUBCHEM_EFFECTIVE_ROTOR_COUNT>
7

> <PUBCHEM_PHARMACOPHORE_FEATURES>
13
1 2 acceptor
1 3 acceptor
1 4 acceptor
1 4 anion
1 5 acceptor
1 6 donor
1 8 donor
1 9 acceptor
3 6 7 13 cation
5 2 18 20 21 23 rings
5 6 7 11 12 13 rings
6 11 12 14 15 16 17 rings
6 19 22 24 25 26 27 rings

> <PUBCHEM_HEAVY_ATOM_COUNT>
29

> <PUBCHEM_ATOM_DEF_STEREO_COUNT>
0

> <PUBCHEM_ATOM_UDEF_STEREO_COUNT>
0

> <PUBCHEM_BOND_DEF_STEREO_COUNT>
0

> <PUBCHEM_BOND_UDEF_STEREO_COUNT>
1

> <PUBCHEM_ISOTOPIC_ATOM_COUNT>
0

> <PUBCHEM_COMPONENT_COUNT>
1

> <PUBCHEM_CACTVS_TAUTO_COUNT>
2

> <PUBCHEM_CONFORMER_ID>
004F9A6300000001

> <PUBCHEM_MMFF94_ENERGY>
61.2865

> <PUBCHEM_FEATURE_SELFOVERLAP>
66.171

> <PUBCHEM_SHAPE_FINGERPRINT>
10050765 1 18410857673165674868
10462674 369 17031935070182614298
10483366 6 18339630223470682375
11135609 99 18411417273054739374
11136131 41 17975405026353884080
11374522 58 16235930463786729587
12202916 173 18202277010072142895
12788726 201 18409441493187299441
14150023 24 18052263886980674161
14251757 5 18408320016912064193
14461889 52 18271795861953173624
14659021 117 18339071692337228865
14844126 61 18409173212297530505
14866123 147 18412550929667133409
14931854 50 18189315979846564359
152267 14 17982448497371470575
15250474 111 18334570214360204322
15400415 2 18123191203780448441
15439362 3 17398949380814411997
15728490 83 18262528120791143779
15803439 3 17681799979598689437
16719943 64 18337955593540266323
17627616 140 18115861893955895507
19301676 85 18267015232350664935
19611394 137 18273493499142575224
19958102 18 18261105227878981013
21133410 171 17545825738286209411
21236236 1 18411420591978113280
23559900 14 18341040913299744665
255183 313 18197519371687980593
3383291 50 18411421709624347115
395649 100 18335703875689551996
4073 2 18410013234997187320
4280585 95 18264480857636820465
5104073 3 18202001006515099472
57527306 92 15719658893895670381
6431902 208 18265052612056576390

> <PUBCHEM_SHAPE_MULTIPOLES>
552.27
17.69
6.04
0.86
31.75
1.9
-0.05
6.86
0.99
-9.17
-1.01
-0.69
0.31
-0.94

> <PUBCHEM_SHAPE_SELFOVERLAP>
1210.92

> <PUBCHEM_SHAPE_VOLUME>
299.9

> <PUBCHEM_COORDINATE_TYPE>
2
5
10

$$$$
