49830536
  -OEChem-10052115183D

 52 55  0     0  0  0  0  0  0999 V2000
    5.4660    0.3144   -0.8023 O   0  0  0  0  0  0  0  0  0  0  0  0
    1.8663   -2.1615    1.1598 O   0  0  0  0  0  0  0  0  0  0  0  0
    4.4421   -2.0782    0.1457 O   0  0  0  0  0  0  0  0  0  0  0  0
   -2.5979   -4.4437   -0.5451 O   0  0  0  0  0  0  0  0  0  0  0  0
   -3.1394    1.0623   -0.1500 N   0  0  0  0  0  0  0  0  0  0  0  0
   -0.8093    1.6461    0.0606 N   0  0  0  0  0  0  0  0  0  0  0  0
    1.3428    2.5350    0.2811 N   0  0  0  0  0  0  0  0  0  0  0  0
   -0.4462    4.0443    0.2726 N   0  0  0  0  0  0  0  0  0  0  0  0
   -2.1149    1.9599   -0.0071 C   0  0  0  0  0  0  0  0  0  0  0  0
   -2.6665    3.2337    0.0537 C   0  0  0  0  0  0  0  0  0  0  0  0
   -3.0037   -0.3235   -0.2506 C   0  0  0  0  0  0  0  0  0  0  0  0
   -4.3348    1.7335   -0.1806 C   0  0  0  0  0  0  0  0  0  0  0  0
   -4.0723    3.0814   -0.0565 C   0  0  0  0  0  0  0  0  0  0  0  0
   -0.0516    2.7530    0.2000 C   0  0  0  0  0  0  0  0  0  0  0  0
   -1.7739    4.2948    0.1990 C   0  0  0  0  0  0  0  0  0  0  0  0
    2.1261    1.3677    0.2453 C   0  0  0  0  0  0  0  0  0  0  0  0
   -4.0168   -1.1594    0.2192 C   0  0  0  0  0  0  0  0  0  0  0  0
   -1.8544   -0.8722   -0.8195 C   0  0  0  0  0  0  0  0  0  0  0  0
    1.6072    0.1643    0.7231 C   0  0  0  0  0  0  0  0  0  0  0  0
    3.4228    1.4136   -0.2666 C   0  0  0  0  0  0  0  0  0  0  0  0
    4.2007    0.2562   -0.3007 C   0  0  0  0  0  0  0  0  0  0  0  0
    2.3850   -0.9931    0.6888 C   0  0  0  0  0  0  0  0  0  0  0  0
    3.6817   -0.9470    0.1771 C   0  0  0  0  0  0  0  0  0  0  0  0
   -3.8805   -2.5440    0.1201 C   0  0  0  0  0  0  0  0  0  0  0  0
   -1.7180   -2.2568   -0.9185 C   0  0  0  0  0  0  0  0  0  0  0  0
   -2.7310   -3.0927   -0.4487 C   0  0  0  0  0  0  0  0  0  0  0  0
    5.9197    1.5833   -1.2700 C   0  0  0  0  0  0  0  0  0  0  0  0
    2.0674   -2.4487    2.5424 C   0  0  0  0  0  0  0  0  0  0  0  0
    4.3551   -2.8836   -1.0277 C   0  0  0  0  0  0  0  0  0  0  0  0
   -3.6718   -5.2391   -0.0447 C   0  0  0  0  0  0  0  0  0  0  0  0
   -5.2833    1.2285   -0.3083 H   0  0  0  0  0  0  0  0  0  0  0  0
   -4.8157    3.8666   -0.0523 H   0  0  0  0  0  0  0  0  0  0  0  0
   -2.0775    5.3325    0.2586 H   0  0  0  0  0  0  0  0  0  0  0  0
   -4.9162   -0.7696    0.6883 H   0  0  0  0  0  0  0  0  0  0  0  0
   -1.0646   -0.2733   -1.2599 H   0  0  0  0  0  0  0  0  0  0  0  0
    1.8723    3.4010    0.2498 H   0  0  0  0  0  0  0  0  0  0  0  0
    0.6216    0.0980    1.1724 H   0  0  0  0  0  0  0  0  0  0  0  0
    3.7720    2.3767   -0.6246 H   0  0  0  0  0  0  0  0  0  0  0  0
   -4.7027   -3.1349    0.5091 H   0  0  0  0  0  0  0  0  0  0  0  0
   -0.8261   -2.6787   -1.3740 H   0  0  0  0  0  0  0  0  0  0  0  0
    5.3267    1.9358   -2.1208 H   0  0  0  0  0  0  0  0  0  0  0  0
    5.9676    2.3190   -0.4599 H   0  0  0  0  0  0  0  0  0  0  0  0
    6.9435    1.4448   -1.6332 H   0  0  0  0  0  0  0  0  0  0  0  0
    1.6044   -3.4145    2.7622 H   0  0  0  0  0  0  0  0  0  0  0  0
    1.5938   -1.6835    3.1655 H   0  0  0  0  0  0  0  0  0  0  0  0
    3.1358   -2.5123    2.7717 H   0  0  0  0  0  0  0  0  0  0  0  0
    3.3323   -3.2459   -1.1714 H   0  0  0  0  0  0  0  0  0  0  0  0
    4.6805   -2.3195   -1.9074 H   0  0  0  0  0  0  0  0  0  0  0  0
    5.0161   -3.7454   -0.9012 H   0  0  0  0  0  0  0  0  0  0  0  0
   -3.3983   -6.2875   -0.2030 H   0  0  0  0  0  0  0  0  0  0  0  0
   -4.5975   -5.0625   -0.6028 H   0  0  0  0  0  0  0  0  0  0  0  0
   -3.8046   -5.1029    1.0340 H   0  0  0  0  0  0  0  0  0  0  0  0
  1 21  1  0  0  0  0
  1 27  1  0  0  0  0
  2 22  1  0  0  0  0
  2 28  1  0  0  0  0
  3 23  1  0  0  0  0
  3 29  1  0  0  0  0
  4 26  1  0  0  0  0
  4 30  1  0  0  0  0
  5  9  1  0  0  0  0
  5 11  1  0  0  0  0
  5 12  1  0  0  0  0
  6  9  2  0  0  0  0
  6 14  1  0  0  0  0
  7 14  1  0  0  0  0
  7 16  1  0  0  0  0
  7 36  1  0  0  0  0
  8 14  2  0  0  0  0
  8 15  1  0  0  0  0
  9 10  1  0  0  0  0
 10 13  1  0  0  0  0
 10 15  2  0  0  0  0
 11 17  2  0  0  0  0
 11 18  1  0  0  0  0
 12 13  2  0  0  0  0
 12 31  1  0  0  0  0
 13 32  1  0  0  0  0
 15 33  1  0  0  0  0
 16 19  2  0  0  0  0
 16 20  1  0  0  0  0
 17 24  1  0  0  0  0
 17 34  1  0  0  0  0
 18 25  2  0  0  0  0
 18 35  1  0  0  0  0
 19 22  1  0  0  0  0
 19 37  1  0  0  0  0
 20 21  2  0  0  0  0
 20 38  1  0  0  0  0
 21 23  1  0  0  0  0
 22 23  2  0  0  0  0
 24 26  2  0  0  0  0
 24 39  1  0  0  0  0
 25 26  1  0  0  0  0
 25 40  1  0  0  0  0
 27 41  1  0  0  0  0
 27 42  1  0  0  0  0
 27 43  1  0  0  0  0
 28 44  1  0  0  0  0
 28 45  1  0  0  0  0
 28 46  1  0  0  0  0
 29 47  1  0  0  0  0
 29 48  1  0  0  0  0
 29 49  1  0  0  0  0
 30 50  1  0  0  0  0
 30 51  1  0  0  0  0
 30 52  1  0  0  0  0
M  END
> <PUBCHEM_COMPOUND_CID>
49830536

> <PUBCHEM_CONFORMER_RMSD>
0.8

> <PUBCHEM_CONFORMER_DIVERSEORDER>
2
30
37
32
44
27
20
48
4
9
47
5
24
10
22
17
40
3
16
23
57
61
33
18
42
58
50
19
60
34
51
11
52
59
1
45
6
14
15
56
46
63
7
26
65
13
41
38
8
62
53
36
31
49
35
55
69
25
67
21
39
28
54
64
12
66
29
68
43

> <PUBCHEM_MMFF94_PARTIAL_CHARGES>
39
1 -0.36
11 -0.02
12 -0.3
13 -0.15
14 0.72
15 0.16
16 0.1
17 -0.15
18 -0.15
19 -0.15
2 -0.36
20 -0.15
21 0.08
22 0.08
23 0.08
24 -0.15
25 -0.15
26 0.08
27 0.28
28 0.28
29 0.28
3 -0.36
30 0.28
31 0.15
32 0.15
33 0.15
34 0.15
35 0.15
36 0.4
37 0.15
38 0.15
39 0.15
4 -0.36
40 0.15
5 0.33
6 -0.57
7 -0.6
8 -0.62
9 0.11

> <PUBCHEM_EFFECTIVE_ROTOR_COUNT>
7

> <PUBCHEM_PHARMACOPHORE_FEATURES>
10
1 1 acceptor
1 2 acceptor
1 3 acceptor
1 4 acceptor
1 7 donor
4 6 7 8 14 cation
5 5 9 10 12 13 rings
6 11 17 18 24 25 26 rings
6 16 19 20 21 22 23 rings
6 6 8 9 10 14 15 rings

> <PUBCHEM_HEAVY_ATOM_COUNT>
30

> <PUBCHEM_ATOM_DEF_STEREO_COUNT>
0

> <PUBCHEM_ATOM_UDEF_STEREO_COUNT>
0

> <PUBCHEM_BOND_DEF_STEREO_COUNT>
0

> <PUBCHEM_BOND_UDEF_STEREO_COUNT>
0

> <PUBCHEM_ISOTOPIC_ATOM_COUNT>
0

> <PUBCHEM_COMPONENT_COUNT>
1

> <PUBCHEM_CACTVS_TAUTO_COUNT>
4

> <PUBCHEM_CONFORMER_ID>
02F85A8800000002

> <PUBCHEM_MMFF94_ENERGY>
138.9999

> <PUBCHEM_FEATURE_SELFOVERLAP>
50.873

> <PUBCHEM_SHAPE_FINGERPRINT>
10462674 296 17554320706951001214
10616163 171 18411700967443118292
11014199 57 18195245748469743139
11186622 123 18408038494648580026
11513181 2 17914888734593137831
12553582 1 18267292304568190995
12788726 201 18335134315191002155
13631057 29 18341615975018164380
13726171 33 18200893815459281176
13785724 45 17908437088614916063
138480 1 16322311889329431797
14117953 113 16967157926626164540
14251757 5 18341899562875645916
14790565 3 17980487762869972201
14863182 85 16968010624064722405
15320294 125 17682101189433354498
15320467 1 17835242242385786374
15403338 16 16304570277346879481
15439362 3 16176220865964128476
15968369 26 17182765010308073029
16719943 64 17979633437907886246
17627616 140 16753827360532542015
17909252 39 18200602522455895810
19319366 153 17967815990106360371
19930381 70 17473255960992051259
20101258 96 18194410115622717235
20775438 99 17335006560466218783
20775530 9 18198056096069522675
21133410 171 17473484482822026354
21133410 38 15889426078004263923
229767 44 17399767438053818394
23379529 103 18270973349450391294
23559900 14 17624691254993245076
3383291 50 18339916001408855755
3882209 13 17764541716400857707
44880168 125 17274556402728888718
463206 1 18119533386455490075
474144 1 17680982994533960098
5265222 85 18051421664777602548
5309563 4 17979637058755351047
56633871 153 18197509626343738931
613672 6 17981018006926249215
70251023 43 17977947109673375883
86090 222 16449809643027561491

> <PUBCHEM_SHAPE_MULTIPOLES>
573.98
10.77
6.58
1.1
10.01
2.39
-0.47
2.77
2.76
-7.78
-0.05
1.09
0.8
-1.12

> <PUBCHEM_SHAPE_SELFOVERLAP>
1260.106

> <PUBCHEM_SHAPE_VOLUME>
310.2

> <PUBCHEM_COORDINATE_TYPE>
2
5
10

$$$$
