10389239
  -OEChem-10052120443D

 42 46  0     0  0  0  0  0  0999 V2000
    4.9293   -3.0181   -0.4019 O   0  0  0  0  0  0  0  0  0  0  0  0
    3.5727    1.2650    0.4555 N   0  0  0  0  0  0  0  0  0  0  0  0
    6.5734   -1.5046    0.1879 N   0  0  0  0  0  0  0  0  0  0  0  0
   -1.3107    2.3446   -0.5348 N   0  0  0  0  0  0  0  0  0  0  0  0
   -3.5746   -1.8069   -0.5644 N   0  0  0  0  0  0  0  0  0  0  0  0
    4.6628    0.4439    0.4870 C   0  0  0  0  0  0  0  0  0  0  0  0
    6.0056    0.7932    1.0072 C   0  0  0  0  0  0  0  0  0  0  0  0
    4.3061   -0.7847   -0.0273 C   0  0  0  0  0  0  0  0  0  0  0  0
    7.0279   -0.1154    0.3142 C   0  0  0  0  0  0  0  0  0  0  0  0
    2.5098    0.5715   -0.0697 C   0  0  0  0  0  0  0  0  0  0  0  0
    2.9355   -0.7064   -0.3730 C   0  0  0  0  0  0  0  0  0  0  0  0
    5.2616   -1.8728   -0.1114 C   0  0  0  0  0  0  0  0  0  0  0  0
    1.2084    1.1751   -0.2276 C   0  0  0  0  0  0  0  0  0  0  0  0
    0.0621    0.3932   -0.1452 C   0  0  0  0  0  0  0  0  0  0  0  0
   -1.1629    1.0207   -0.3045 C   0  0  0  0  0  0  0  0  0  0  0  0
    1.0976    2.5406   -0.4633 C   0  0  0  0  0  0  0  0  0  0  0  0
   -2.3961    0.2739   -0.2314 C   0  0  0  0  0  0  0  0  0  0  0  0
   -0.1736    3.0721   -0.6086 C   0  0  0  0  0  0  0  0  0  0  0  0
   -3.5685    0.8625    0.2204 C   0  0  0  0  0  0  0  0  0  0  0  0
   -4.7534    0.1168    0.2821 C   0  0  0  0  0  0  0  0  0  0  0  0
   -4.7108   -1.2329   -0.1255 C   0  0  0  0  0  0  0  0  0  0  0  0
   -2.4526   -1.0526   -0.6086 C   0  0  0  0  0  0  0  0  0  0  0  0
   -5.9570    0.6838    0.7348 C   0  0  0  0  0  0  0  0  0  0  0  0
   -5.8882   -1.9731   -0.0639 C   0  0  0  0  0  0  0  0  0  0  0  0
   -7.1197   -0.0797    0.7861 C   0  0  0  0  0  0  0  0  0  0  0  0
   -7.0849   -1.4097    0.3860 C   0  0  0  0  0  0  0  0  0  0  0  0
    6.2520    1.8456    0.8339 H   0  0  0  0  0  0  0  0  0  0  0  0
    6.0245    0.6140    2.0887 H   0  0  0  0  0  0  0  0  0  0  0  0
    7.2175    0.2391   -0.7060 H   0  0  0  0  0  0  0  0  0  0  0  0
    7.9791   -0.1167    0.8553 H   0  0  0  0  0  0  0  0  0  0  0  0
    3.5549    2.2200    0.7874 H   0  0  0  0  0  0  0  0  0  0  0  0
    2.3338   -1.4965   -0.8022 H   0  0  0  0  0  0  0  0  0  0  0  0
    7.2834   -2.2298    0.1561 H   0  0  0  0  0  0  0  0  0  0  0  0
    0.1374   -0.6681    0.0703 H   0  0  0  0  0  0  0  0  0  0  0  0
    1.9589    3.1948   -0.5493 H   0  0  0  0  0  0  0  0  0  0  0  0
   -3.5822    1.9029    0.5412 H   0  0  0  0  0  0  0  0  0  0  0  0
   -0.3151    4.1311   -0.7971 H   0  0  0  0  0  0  0  0  0  0  0  0
   -1.5948   -1.5920   -0.9983 H   0  0  0  0  0  0  0  0  0  0  0  0
   -5.9956    1.7242    1.0503 H   0  0  0  0  0  0  0  0  0  0  0  0
   -5.8875   -3.0172   -0.3716 H   0  0  0  0  0  0  0  0  0  0  0  0
   -8.0476    0.3617    1.1364 H   0  0  0  0  0  0  0  0  0  0  0  0
   -7.9875   -2.0129    0.4226 H   0  0  0  0  0  0  0  0  0  0  0  0
  1 12  2  0  0  0  0
  2  6  1  0  0  0  0
  2 10  1  0  0  0  0
  2 31  1  0  0  0  0
  3  9  1  0  0  0  0
  3 12  1  0  0  0  0
  3 33  1  0  0  0  0
  4 15  2  0  0  0  0
  4 18  1  0  0  0  0
  5 21  1  0  0  0  0
  5 22  2  0  0  0  0
  6  7  1  0  0  0  0
  6  8  2  0  0  0  0
  7  9  1  0  0  0  0
  7 27  1  0  0  0  0
  7 28  1  0  0  0  0
  8 11  1  0  0  0  0
  8 12  1  0  0  0  0
  9 29  1  0  0  0  0
  9 30  1  0  0  0  0
 10 11  2  0  0  0  0
 10 13  1  0  0  0  0
 11 32  1  0  0  0  0
 13 14  2  0  0  0  0
 13 16  1  0  0  0  0
 14 15  1  0  0  0  0
 14 34  1  0  0  0  0
 15 17  1  0  0  0  0
 16 18  2  0  0  0  0
 16 35  1  0  0  0  0
 17 19  2  0  0  0  0
 17 22  1  0  0  0  0
 18 37  1  0  0  0  0
 19 20  1  0  0  0  0
 19 36  1  0  0  0  0
 20 21  1  0  0  0  0
 20 23  2  0  0  0  0
 21 24  2  0  0  0  0
 22 38  1  0  0  0  0
 23 25  1  0  0  0  0
 23 39  1  0  0  0  0
 24 26  1  0  0  0  0
 24 40  1  0  0  0  0
 25 26  2  0  0  0  0
 25 41  1  0  0  0  0
 26 42  1  0  0  0  0
M  END
> <PUBCHEM_COMPOUND_CID>
10389239

> <PUBCHEM_CONFORMER_RMSD>
0.6

> <PUBCHEM_CONFORMER_DIVERSEORDER>
1
31
24
9
27
21
8
28
13
15
34
2
33
16
3
14
7
36
35
11
26
5
10
6
29
30
23
22
18
25
19
12
4
32
20
17

> <PUBCHEM_MMFF94_PARTIAL_CHARGES>
36
1 -0.57
10 -0.2
11 -0.15
12 0.72
13 0.05
14 -0.15
15 0.31
16 -0.15
18 0.16
19 -0.15
2 0.03
21 0.31
22 0.16
23 -0.15
24 -0.15
25 -0.15
26 -0.15
3 -0.73
31 0.27
32 0.15
33 0.37
34 0.15
35 0.15
36 0.15
37 0.15
38 0.15
39 0.15
4 -0.62
40 0.15
41 0.15
42 0.15
5 -0.62
6 -0.33
7 0.18
8 -0.09
9 0.3

> <PUBCHEM_EFFECTIVE_ROTOR_COUNT>
2.6

> <PUBCHEM_PHARMACOPHORE_FEATURES>
11
1 1 acceptor
1 2 cation
1 2 donor
1 3 donor
1 4 acceptor
1 5 acceptor
5 2 6 8 10 11 rings
6 20 21 23 24 25 26 rings
6 3 6 7 8 9 12 rings
6 4 13 14 15 16 18 rings
6 5 17 19 20 21 22 rings

> <PUBCHEM_HEAVY_ATOM_COUNT>
26

> <PUBCHEM_ATOM_DEF_STEREO_COUNT>
0

> <PUBCHEM_ATOM_UDEF_STEREO_COUNT>
0

> <PUBCHEM_BOND_DEF_STEREO_COUNT>
0

> <PUBCHEM_BOND_UDEF_STEREO_COUNT>
0

> <PUBCHEM_ISOTOPIC_ATOM_COUNT>
0

> <PUBCHEM_COMPONENT_COUNT>
1

> <PUBCHEM_CACTVS_TAUTO_COUNT>
5

> <PUBCHEM_CONFORMER_ID>
009E86F700000001

> <PUBCHEM_MMFF94_ENERGY>
69.728

> <PUBCHEM_FEATURE_SELFOVERLAP>
55.95

> <PUBCHEM_SHAPE_FINGERPRINT>
10 15 16774078500652311896
10299344 5 18410578400747083606
10670039 82 8718560410104503486
10939801 23 18342737464272642662
11409948 8 18129086851104058922
11456790 92 17988096569187778025
11524674 6 16917348147470744351
117089 54 18118414066687407011
11963148 33 18408595968762402730
12107183 9 18340778061685727817
12236239 1 18342178899428226073
12516196 113 18409166623327152472
12592606 108 18410008875837509871
12596602 18 17989489623358194531
12623949 98 18058739001092236630
12760667 363 18334295366512619841
13402501 40 18411136926805614414
13533116 47 18341896332870686200
13551218 46 18413108351285903903
13685833 64 18408323289207697058
14216079 64 18409166602195272279
14251764 18 18202565102944472815
14341114 176 18273214175690855912
14394314 77 18335985268561114097
14420673 8 18408326584128543323
14528608 73 9079121050925052145
14556957 393 15285648633591042702
15021287 119 17894920633350462157
15042514 8 18338237038104663629
15301273 46 17346328080930687972
15347590 135 18342161273162084200
15347591 1 18118118079606136908
15461852 350 16845849110272977349
15475509 84 17846504720472928577
15927050 60 17621599845272101404
16110190 28 18271805752255021094
16120349 21 18269564849227039649
17492 89 18192990414531404698
1768 124 18202283619193874335
1813 80 17821449062241061252
19141452 34 18272649077895038815
1979834 28 17560812017146846590
20028762 73 18412262852319016390
21033648 29 14979694169361135897
21130935 74 18272653450130035227
21267235 1 18408608062798548668
21365058 113 16588312721922648109
21585482 111 10519170126159863123
21682296 61 18408890633651374299
21792934 111 18411974767809533049
22122407 14 15769779112327429442
22950370 63 18408888442453207909
23424784 1240 18200033924599894854
23522609 53 18119281456327590092
23559900 14 18337667650606617209
23569943 247 18117839906463044875
23845131 108 17405716874044642497
2838139 119 9079115553023963514
3004659 81 17894631469943895916
3103668 31 17895748484139371957
335352 9 18409166615533673389
3383291 50 18114748239249110931
3388396 114 15792886393431661142
3472631 163 9007052474560790120
351380 3 18259982677914714555
3663271 9 17988646289412922779
406291 66 17242154779249477658
4073 2 18263364857555593082
46194498 28 17240762938476078388
465052 167 18412268354050024047
5028188 123 17560522932395662932
5104073 3 18200021825734524816
543368 44 9439410121254073659
559249 180 18410855465404304439
59682541 35 18340197584123395408
6058803 2 17981897651210882733
6138700 20 18334295353754636947
7970288 3 18408039619582540475
9962374 69 18266735973597541031
999808 66 17894923953386244379

> <PUBCHEM_SHAPE_MULTIPOLES>
509.27
20.13
2.62
0.8
1.67
0.37
-0.06
-11.54
-5.22
-1.03
0.6
0.06
0.09
0.2

> <PUBCHEM_SHAPE_SELFOVERLAP>
1160.211

> <PUBCHEM_SHAPE_VOLUME>
261.6

> <PUBCHEM_COORDINATE_TYPE>
2
5
10

$$$$
