9860448
  -OEChem-10052115143D

 35 38  0     0  0  0  0  0  0999 V2000
   -3.2412    3.0519   -0.1937 O   0  0  0  0  0  0  0  0  0  0  0  0
   -2.2376   -2.3283    0.1288 N   0  0  0  0  0  0  0  0  0  0  0  0
    1.4982    0.5173    0.5063 N   0  0  0  0  0  0  0  0  0  0  0  0
    3.6896    1.5392    0.6649 N   0  0  0  0  0  0  0  0  0  0  0  0
    4.5104   -0.9027   -0.6304 N   0  0  0  0  0  0  0  0  0  0  0  0
   -0.4238   -1.0517    0.0445 C   0  0  0  0  0  0  0  0  0  0  0  0
   -1.5664   -0.2048   -0.0022 C   0  0  0  0  0  0  0  0  0  0  0  0
   -2.6912   -1.0308    0.0522 C   0  0  0  0  0  0  0  0  0  0  0  0
    0.9939   -0.6633    0.0166 C   0  0  0  0  0  0  0  0  0  0  0  0
   -0.8688   -2.3511    0.1249 C   0  0  0  0  0  0  0  0  0  0  0  0
   -1.7523    1.1895   -0.0859 C   0  0  0  0  0  0  0  0  0  0  0  0
   -3.9978   -0.5302    0.0270 C   0  0  0  0  0  0  0  0  0  0  0  0
    2.0417   -1.4015   -0.4960 C   0  0  0  0  0  0  0  0  0  0  0  0
   -3.0724   -3.5081    0.2021 C   0  0  0  0  0  0  0  0  0  0  0  0
    2.8524    0.5454    0.3151 C   0  0  0  0  0  0  0  0  0  0  0  0
    3.2182   -0.6400   -0.3089 C   0  0  0  0  0  0  0  0  0  0  0  0
   -3.0535    1.7044   -0.1118 C   0  0  0  0  0  0  0  0  0  0  0  0
   -4.1575    0.8560   -0.0563 C   0  0  0  0  0  0  0  0  0  0  0  0
    4.9677    1.2571    0.3360 C   0  0  0  0  0  0  0  0  0  0  0  0
    5.3624    0.0853   -0.2856 C   0  0  0  0  0  0  0  0  0  0  0  0
   -2.0721    3.8665   -0.2475 C   0  0  0  0  0  0  0  0  0  0  0  0
   -0.3289   -3.2877    0.1817 H   0  0  0  0  0  0  0  0  0  0  0  0
   -0.8681    1.8099   -0.1415 H   0  0  0  0  0  0  0  0  0  0  0  0
   -4.8615   -1.1852    0.0699 H   0  0  0  0  0  0  0  0  0  0  0  0
    0.9645    1.2452    0.9602 H   0  0  0  0  0  0  0  0  0  0  0  0
    1.9725   -2.3779   -0.9566 H   0  0  0  0  0  0  0  0  0  0  0  0
   -3.6961   -3.5453   -0.6946 H   0  0  0  0  0  0  0  0  0  0  0  0
   -2.4439   -4.4009    0.2527 H   0  0  0  0  0  0  0  0  0  0  0  0
   -3.6893   -3.4385    1.1016 H   0  0  0  0  0  0  0  0  0  0  0  0
   -5.1623    1.2715   -0.0777 H   0  0  0  0  0  0  0  0  0  0  0  0
    5.6925    2.0221    0.5932 H   0  0  0  0  0  0  0  0  0  0  0  0
    6.4042   -0.0933   -0.5289 H   0  0  0  0  0  0  0  0  0  0  0  0
   -2.4069    4.9075   -0.3057 H   0  0  0  0  0  0  0  0  0  0  0  0
   -1.4851    3.6707   -1.1514 H   0  0  0  0  0  0  0  0  0  0  0  0
   -1.4741    3.7759    0.6658 H   0  0  0  0  0  0  0  0  0  0  0  0
  1 17  1  0  0  0  0
  1 21  1  0  0  0  0
  2  8  1  0  0  0  0
  2 10  1  0  0  0  0
  2 14  1  0  0  0  0
  3  9  1  0  0  0  0
  3 15  1  0  0  0  0
  3 25  1  0  0  0  0
  4 15  2  0  0  0  0
  4 19  1  0  0  0  0
  5 16  2  0  0  0  0
  5 20  1  0  0  0  0
  6  7  1  0  0  0  0
  6  9  1  0  0  0  0
  6 10  2  0  0  0  0
  7  8  2  0  0  0  0
  7 11  1  0  0  0  0
  8 12  1  0  0  0  0
  9 13  2  0  0  0  0
 10 22  1  0  0  0  0
 11 17  2  0  0  0  0
 11 23  1  0  0  0  0
 12 18  2  0  0  0  0
 12 24  1  0  0  0  0
 13 16  1  0  0  0  0
 13 26  1  0  0  0  0
 14 27  1  0  0  0  0
 14 28  1  0  0  0  0
 14 29  1  0  0  0  0
 15 16  1  0  0  0  0
 17 18  1  0  0  0  0
 18 30  1  0  0  0  0
 19 20  2  0  0  0  0
 19 31  1  0  0  0  0
 20 32  1  0  0  0  0
 21 33  1  0  0  0  0
 21 34  1  0  0  0  0
 21 35  1  0  0  0  0
M  END
> <PUBCHEM_COMPOUND_CID>
9860448

> <PUBCHEM_CONFORMER_RMSD>
0.6

> <PUBCHEM_CONFORMER_DIVERSEORDER>
2
3
8
6
7
5
1
4

> <PUBCHEM_MMFF94_PARTIAL_CHARGES>
27
1 -0.36
10 -0.3
11 -0.15
12 -0.15
13 -0.15
14 0.26
15 0.11
16 0.26
17 0.08
18 -0.15
19 0.16
2 0.05
20 0.16
21 0.28
22 0.15
23 0.15
24 0.15
25 0.27
26 0.15
3 0.03
30 0.15
31 0.15
32 0.15
4 -0.57
5 -0.57
8 -0.15
9 -0.15

> <PUBCHEM_EFFECTIVE_ROTOR_COUNT>
2

> <PUBCHEM_PHARMACOPHORE_FEATURES>
9
1 1 acceptor
1 2 cation
1 3 donor
1 5 acceptor
3 3 4 15 cation
5 2 6 7 8 10 rings
5 3 9 13 15 16 rings
6 4 5 15 16 19 20 rings
6 7 8 11 12 17 18 rings

> <PUBCHEM_HEAVY_ATOM_COUNT>
21

> <PUBCHEM_ATOM_DEF_STEREO_COUNT>
0

> <PUBCHEM_ATOM_UDEF_STEREO_COUNT>
0

> <PUBCHEM_BOND_DEF_STEREO_COUNT>
0

> <PUBCHEM_BOND_UDEF_STEREO_COUNT>
0

> <PUBCHEM_ISOTOPIC_ATOM_COUNT>
0

> <PUBCHEM_COMPONENT_COUNT>
1

> <PUBCHEM_CACTVS_TAUTO_COUNT>
3

> <PUBCHEM_CONFORMER_ID>
0096756000000002

> <PUBCHEM_MMFF94_ENERGY>
52.3692

> <PUBCHEM_FEATURE_SELFOVERLAP>
45.897

> <PUBCHEM_SHAPE_FINGERPRINT>
10319926 262 18339907282909841746
10411042 1 17977386358875533331
10498660 4 18263919956345778709
10608611 8 18341893004492168354
10646746 165 18410855465024509358
10670039 82 18261969487575143932
11405975 8 18408038494881013546
11595378 159 17821997697332254696
12107183 9 17901656078204344226
12173636 292 18337388241028913821
12236239 1 17385722512795814962
12390115 104 18199201589738768329
12403259 226 18127969913321014162
12596602 18 16877947178211724048
13140716 1 18191596456861277675
13402501 40 18343018891461881353
138480 1 16608851233714274125
13965767 371 17390789964251518373
14508225 48 18125146389505824095
14790565 3 18268436737697642921
15042514 8 18335990878078689283
15196674 1 18412544297372666128
15961568 22 18119808269006256140
200 152 17060621113570673703
20510252 161 18341613681573901473
20645477 56 18410580565210303095
20645477 70 17131843019354022590
21033650 10 18117871878868540798
21065198 57 18411138030933729030
21065201 7 18411417328414865794
21279426 13 18125445207576150798
221357 26 18201716232438677628
22182937 141 18342464703220534673
2306618 200 18272662267818830395
23227448 37 18411980290730852181
23402539 116 18338509845710387207
23557571 272 18340777047223931414
23559900 14 18200313217822740038
23845131 108 17977117764890391785
245318 6 16593666420201306540
350125 39 18120939400024132451
3545911 37 18412830196271193198
4028521 119 18408878521384494917
4214541 1 18411700997850559802
474 4 17168714175365839572
5104073 3 18341049705123498386
5895379 119 18189918468994957212
77779 3 18411420652645589166
7808743 9 18409165506762483560
9709674 26 18343588421278846102
9981440 41 18334574599321652643

> <PUBCHEM_SHAPE_MULTIPOLES>
406.38
10.01
3.55
0.68
10.81
1.28
0
2.2
-0.23
-4.93
-0.06
0.22
0.01
0.85

> <PUBCHEM_SHAPE_SELFOVERLAP>
917.851

> <PUBCHEM_SHAPE_VOLUME>
213

> <PUBCHEM_COORDINATE_TYPE>
2
5
10

$$$$
