25166655
  -OEChem-10052120433D

 40 43  0     0  0  0  0  0  0999 V2000
   -1.1009    0.8997   -0.8979 N   0  0  0  0  0  0  0  0  0  0  0  0
   -1.0739    1.7543    0.1376 N   0  0  0  0  0  0  0  0  0  0  0  0
    0.1675    1.7619    0.6106 N   0  0  0  0  0  0  0  0  0  0  0  0
    6.2472   -0.4002    0.5159 N   0  0  0  0  0  0  0  0  0  0  0  0
    6.3289   -1.6691    0.0820 N   0  0  0  0  0  0  0  0  0  0  0  0
   -2.3207    0.6692   -1.6290 C   0  0  0  0  0  0  0  0  0  0  0  0
   -3.4574    0.1913   -0.7598 C   0  0  0  0  0  0  0  0  0  0  0  0
   -3.5273   -1.1354   -0.3348 C   0  0  0  0  0  0  0  0  0  0  0  0
    2.3084    0.6306    0.0530 C   0  0  0  0  0  0  0  0  0  0  0  0
    0.9107    0.8996   -0.1466 C   0  0  0  0  0  0  0  0  0  0  0  0
   -4.4484    1.0975   -0.3825 C   0  0  0  0  0  0  0  0  0  0  0  0
    0.1191    0.3377   -1.1166 C   0  0  0  0  0  0  0  0  0  0  0  0
   -4.5882   -1.5558    0.4675 C   0  0  0  0  0  0  0  0  0  0  0  0
   -5.5793   -0.6496    0.8445 C   0  0  0  0  0  0  0  0  0  0  0  0
    4.1909   -0.8700   -0.0840 C   0  0  0  0  0  0  0  0  0  0  0  0
    2.8220   -0.6275   -0.2859 C   0  0  0  0  0  0  0  0  0  0  0  0
    4.9908    0.1380    0.4427 C   0  0  0  0  0  0  0  0  0  0  0  0
   -5.5095    0.6771    0.4195 C   0  0  0  0  0  0  0  0  0  0  0  0
    3.1342    1.6252    0.5802 C   0  0  0  0  0  0  0  0  0  0  0  0
   -2.4771   -2.1229   -0.7260 C   0  0  0  0  0  0  0  0  0  0  0  0
    4.4989    1.3989    0.7872 C   0  0  0  0  0  0  0  0  0  0  0  0
   -6.7119   -1.0987    1.7044 C   0  0  0  0  0  0  0  0  0  0  0  0
    5.0761   -1.9514   -0.2820 C   0  0  0  0  0  0  0  0  0  0  0  0
   -2.1222   -0.0311   -2.4474 H   0  0  0  0  0  0  0  0  0  0  0  0
   -2.5774    1.6214   -2.1109 H   0  0  0  0  0  0  0  0  0  0  0  0
   -4.4074    2.1346   -0.7044 H   0  0  0  0  0  0  0  0  0  0  0  0
    0.3001   -0.3735   -1.9110 H   0  0  0  0  0  0  0  0  0  0  0  0
   -4.6474   -2.5891    0.8015 H   0  0  0  0  0  0  0  0  0  0  0  0
    2.1961   -1.4192   -0.6873 H   0  0  0  0  0  0  0  0  0  0  0  0
   -6.2758    1.3927    0.7055 H   0  0  0  0  0  0  0  0  0  0  0  0
    2.7327    2.6032    0.8389 H   0  0  0  0  0  0  0  0  0  0  0  0
   -2.3323   -2.1473   -1.8101 H   0  0  0  0  0  0  0  0  0  0  0  0
   -1.5303   -1.9000   -0.2265 H   0  0  0  0  0  0  0  0  0  0  0  0
   -2.7599   -3.1405   -0.4323 H   0  0  0  0  0  0  0  0  0  0  0  0
    5.1422    2.1703    1.1956 H   0  0  0  0  0  0  0  0  0  0  0  0
    4.8582   -2.9337   -0.6770 H   0  0  0  0  0  0  0  0  0  0  0  0
   -7.5108   -1.5178    1.0846 H   0  0  0  0  0  0  0  0  0  0  0  0
   -6.3840   -1.8607    2.4197 H   0  0  0  0  0  0  0  0  0  0  0  0
   -7.1224   -0.2676    2.2880 H   0  0  0  0  0  0  0  0  0  0  0  0
    7.0919    0.0451    0.8520 H   0  0  0  0  0  0  0  0  0  0  0  0
  1  2  1  0  0  0  0
  1  6  1  0  0  0  0
  1 12  1  0  0  0  0
  2  3  2  0  0  0  0
  3 10  1  0  0  0  0
  4  5  1  0  0  0  0
  4 17  1  0  0  0  0
  4 40  1  0  0  0  0
  5 23  2  0  0  0  0
  6  7  1  0  0  0  0
  6 24  1  0  0  0  0
  6 25  1  0  0  0  0
  7  8  2  0  0  0  0
  7 11  1  0  0  0  0
  8 13  1  0  0  0  0
  8 20  1  0  0  0  0
  9 10  1  0  0  0  0
  9 16  2  0  0  0  0
  9 19  1  0  0  0  0
 10 12  2  0  0  0  0
 11 18  2  0  0  0  0
 11 26  1  0  0  0  0
 12 27  1  0  0  0  0
 13 14  2  0  0  0  0
 13 28  1  0  0  0  0
 14 18  1  0  0  0  0
 14 22  1  0  0  0  0
 15 16  1  0  0  0  0
 15 17  2  0  0  0  0
 15 23  1  0  0  0  0
 16 29  1  0  0  0  0
 17 21  1  0  0  0  0
 18 30  1  0  0  0  0
 19 21  2  0  0  0  0
 19 31  1  0  0  0  0
 20 32  1  0  0  0  0
 20 33  1  0  0  0  0
 20 34  1  0  0  0  0
 21 35  1  0  0  0  0
 22 37  1  0  0  0  0
 22 38  1  0  0  0  0
 22 39  1  0  0  0  0
 23 36  1  0  0  0  0
M  END
> <PUBCHEM_COMPOUND_CID>
25166655

> <PUBCHEM_CONFORMER_RMSD>
0.6

> <PUBCHEM_CONFORMER_DIVERSEORDER>
1
6
69
74
30
85
24
60
79
86
54
77
80
35
71
89
75
84
25
90
45
27
31
49
81
66
13
29
52
40
92
39
57
32
53
83
59
82
19
9
88
28
8
10
61
73
5
93
41
70
91
47
51
64
2
42
67
94
34
17
37
16
76
3
43
72
65
56
87
20
68
15
26
62
63
33
38
50
58
48
12
18
22
11
23
36
21
7
44
55
46
14
4
78

> <PUBCHEM_MMFF94_PARTIAL_CHARGES>
31
1 0.31
10 0.17
11 -0.15
12 -0.3
13 -0.15
14 -0.14
16 -0.15
17 -0.15
18 -0.15
19 -0.15
2 -0.42
20 0.14
21 -0.15
22 0.14
23 0.14
26 0.15
27 0.15
28 0.15
29 0.15
3 -0.23
30 0.15
31 0.15
35 0.15
36 0.15
4 0.3
40 0.27
5 -0.71
6 0.4
7 -0.14
8 -0.14
9 0.05

> <PUBCHEM_EFFECTIVE_ROTOR_COUNT>
3

> <PUBCHEM_PHARMACOPHORE_FEATURES>
6
1 4 donor
1 5 acceptor
5 1 2 3 10 12 rings
5 4 5 15 17 23 rings
6 7 8 11 13 14 18 rings
6 9 15 16 17 19 21 rings

> <PUBCHEM_HEAVY_ATOM_COUNT>
23

> <PUBCHEM_ATOM_DEF_STEREO_COUNT>
0

> <PUBCHEM_ATOM_UDEF_STEREO_COUNT>
0

> <PUBCHEM_BOND_DEF_STEREO_COUNT>
0

> <PUBCHEM_BOND_UDEF_STEREO_COUNT>
0

> <PUBCHEM_ISOTOPIC_ATOM_COUNT>
0

> <PUBCHEM_COMPONENT_COUNT>
1

> <PUBCHEM_CACTVS_TAUTO_COUNT>
2

> <PUBCHEM_CONFORMER_ID>
0180033F00000001

> <PUBCHEM_MMFF94_ENERGY>
49.0397

> <PUBCHEM_FEATURE_SELFOVERLAP>
30.539

> <PUBCHEM_SHAPE_FINGERPRINT>
10280341 67 10739301163704747334
11089746 13 14836395934839390145
11128504 68 15647059265466396550
11370993 144 18342736347138118421
11552529 35 17415268709522096055
12236239 1 14490467561044643396
12596602 18 17846500378613828619
12616971 3 17703784838485216444
12633257 1 15913323623861557417
12670546 177 12901544645933316113
13103583 49 17775009024410758755
13288520 33 17530684308220020453
13402501 40 18407761425876415506
13551218 46 18410013247676399767
13668630 136 15936412229978824962
13673619 4 18040437707067022461
13685833 64 18334861623169015483
13941219 33 18273495663046235447
13955234 65 18341604980350396864
14251757 5 14201698501436545209
14251764 18 17775283898138559285
14251764 30 17676209095682546611
14251764 38 10015583942976055122
14341114 176 18343019995537248316
14350574 20 18260829289558187060
14420673 8 18409452466502231723
14528608 73 8286202751343572888
14556957 393 13479134553998598231
14617045 38 18259705575326026722
14739800 52 12031509830827455702
14767858 380 13767929026479443289
14790565 3 17476634756140807896
15238133 3 14836122182641028962
15348495 7 18200871884854510363
15475509 84 17489593329259698952
15537594 2 17458338624491737051
16110190 28 18341332287800714175
17349148 13 15574710270782641852
17780758 139 18344146990776529873
17844677 252 18408325479673394228
1813 80 17312820498138495421
19141452 34 18343299309881834191
19958102 18 14056719024127354224
20105231 36 18059866060777464126
20157964 124 8935006966460852976
20621476 21 18041288728718937139
21150785 3 16153433848597582294
21267235 1 18272934874473895446
21304304 249 17823146773785051067
21403212 168 18201725016770047435
21623969 137 18342460326633081086
22950370 63 18410012169075034684
2303208 19 18187082840821689460
23522609 53 17897757329794076068
23559900 14 18411408527905543808
239999 70 18334573547581730418
26918003 58 18343577430367591764
2767999 5 13039190299080570187
2838139 119 10015589389025858067
33382 64 18261111850892650546
3383291 50 17894917390676716683
351380 3 17240480316700835835
441001 317 10735879482594376551
465052 167 18413109433997197838
5104073 3 17345743221890121066
5385378 56 15123246398576709325
5924683 9 17773307036546574735
7226269 152 17274825723232513545
8863177 126 18334580191073620547
9981440 41 12751242523614405861
999808 66 17895205411003679211

> <PUBCHEM_SHAPE_MULTIPOLES>
448.42
16.99
1.99
1.14
1.7
0.37
0.03
6.93
-6.09
0.62
-0.06
-1.29
-0.01
1.19

> <PUBCHEM_SHAPE_SELFOVERLAP>
997.892

> <PUBCHEM_SHAPE_VOLUME>
242.5

> <PUBCHEM_COORDINATE_TYPE>
2
5
10

$$$$
