56835147
  -OEChem-10052115173D

 66 70  0     0  0  0  0  0  0999 V2000
  -11.9037    1.5692    1.6811 F   0  0  0  0  0  0  0  0  0  0  0  0
    6.5709   -0.6071   -0.9553 O   0  0  0  0  0  0  0  0  0  0  0  0
   -6.1764    0.2305   -1.3215 O   0  0  0  0  0  0  0  0  0  0  0  0
   10.0871    2.5402    1.0762 N   0  0  0  0  0  0  0  0  0  0  0  0
    3.1811   -3.2788    1.0960 N   0  0  0  0  0  0  0  0  0  0  0  0
    0.1931   -1.1112   -0.7754 N   0  0  0  0  0  0  0  0  0  0  0  0
    0.8489   -2.8519    0.6654 N   0  0  0  0  0  0  0  0  0  0  0  0
   -5.0572    0.0710    0.7307 N   0  0  0  0  0  0  0  0  0  0  0  0
   -7.3162    0.5522    0.6949 N   0  0  0  0  0  0  0  0  0  0  0  0
    8.3054    1.0125   -0.6807 C   0  0  0  0  0  0  0  0  0  0  0  0
    8.7571    2.4400   -1.0073 C   0  0  0  0  0  0  0  0  0  0  0  0
    8.3588    0.7865    0.8340 C   0  0  0  0  0  0  0  0  0  0  0  0
   10.1162    2.7513   -0.3773 C   0  0  0  0  0  0  0  0  0  0  0  0
    9.7310    1.1531    1.4034 C   0  0  0  0  0  0  0  0  0  0  0  0
    6.9063    0.7412   -1.2268 C   0  0  0  0  0  0  0  0  0  0  0  0
   11.3769    2.8911    1.6704 C   0  0  0  0  0  0  0  0  0  0  0  0
    5.2408   -0.8936   -0.7697 C   0  0  0  0  0  0  0  0  0  0  0  0
    4.8638   -1.9446    0.0714 C   0  0  0  0  0  0  0  0  0  0  0  0
    4.2710   -0.1380   -1.4189 C   0  0  0  0  0  0  0  0  0  0  0  0
    3.5249   -2.2642    0.2834 C   0  0  0  0  0  0  0  0  0  0  0  0
    2.5546   -1.4937   -0.3780 C   0  0  0  0  0  0  0  0  0  0  0  0
    2.9256   -0.4353   -1.2253 C   0  0  0  0  0  0  0  0  0  0  0  0
    1.2280   -1.8430   -0.1414 C   0  0  0  0  0  0  0  0  0  0  0  0
    1.8621   -3.5175    1.2429 C   0  0  0  0  0  0  0  0  0  0  0  0
   -1.1255   -0.8135   -0.3968 C   0  0  0  0  0  0  0  0  0  0  0  0
   -2.1085   -0.6411   -1.3714 C   0  0  0  0  0  0  0  0  0  0  0  0
   -1.4532   -0.6912    0.9535 C   0  0  0  0  0  0  0  0  0  0  0  0
   -3.7464   -0.2238    0.3547 C   0  0  0  0  0  0  0  0  0  0  0  0
   -3.4190   -0.3462   -0.9957 C   0  0  0  0  0  0  0  0  0  0  0  0
   -2.7636   -0.3963    1.3293 C   0  0  0  0  0  0  0  0  0  0  0  0
   -6.1882    0.2805   -0.0958 C   0  0  0  0  0  0  0  0  0  0  0  0
   -8.6377    0.8179    0.2648 C   0  0  0  0  0  0  0  0  0  0  0  0
   -9.6389    1.0676    1.2034 C   0  0  0  0  0  0  0  0  0  0  0  0
   -8.9398    0.8289   -1.0970 C   0  0  0  0  0  0  0  0  0  0  0  0
  -10.9421    1.3284    0.7803 C   0  0  0  0  0  0  0  0  0  0  0  0
  -10.2430    1.0896   -1.5200 C   0  0  0  0  0  0  0  0  0  0  0  0
  -11.2443    1.3392   -0.5815 C   0  0  0  0  0  0  0  0  0  0  0  0
    9.0032    0.3035   -1.1475 H   0  0  0  0  0  0  0  0  0  0  0  0
    8.0142    3.1623   -0.6437 H   0  0  0  0  0  0  0  0  0  0  0  0
    8.8223    2.5715   -2.0940 H   0  0  0  0  0  0  0  0  0  0  0  0
    8.1465   -0.2622    1.0732 H   0  0  0  0  0  0  0  0  0  0  0  0
    7.5866    1.3881    1.3317 H   0  0  0  0  0  0  0  0  0  0  0  0
   10.3608    3.7981   -0.5952 H   0  0  0  0  0  0  0  0  0  0  0  0
   10.8907    2.1312   -0.8477 H   0  0  0  0  0  0  0  0  0  0  0  0
   10.4868    0.4541    1.0215 H   0  0  0  0  0  0  0  0  0  0  0  0
    9.6925    1.0273    2.4924 H   0  0  0  0  0  0  0  0  0  0  0  0
    6.8905    0.9013   -2.3114 H   0  0  0  0  0  0  0  0  0  0  0  0
    6.2087    1.4439   -0.7515 H   0  0  0  0  0  0  0  0  0  0  0  0
   11.6205    3.9403    1.4692 H   0  0  0  0  0  0  0  0  0  0  0  0
   12.1929    2.2677    1.2874 H   0  0  0  0  0  0  0  0  0  0  0  0
   11.3411    2.7816    2.7600 H   0  0  0  0  0  0  0  0  0  0  0  0
    5.6386   -2.5241    0.5709 H   0  0  0  0  0  0  0  0  0  0  0  0
    4.5198    0.6692   -2.1009 H   0  0  0  0  0  0  0  0  0  0  0  0
    2.1927    0.1751   -1.7454 H   0  0  0  0  0  0  0  0  0  0  0  0
    0.3748   -0.9453   -1.7616 H   0  0  0  0  0  0  0  0  0  0  0  0
    1.5918   -4.3359    1.8990 H   0  0  0  0  0  0  0  0  0  0  0  0
   -1.8658   -0.7350   -2.4270 H   0  0  0  0  0  0  0  0  0  0  0  0
   -0.7030   -0.8074    1.7311 H   0  0  0  0  0  0  0  0  0  0  0  0
   -4.1208   -0.2279   -1.8087 H   0  0  0  0  0  0  0  0  0  0  0  0
   -3.0043   -0.3008    2.3851 H   0  0  0  0  0  0  0  0  0  0  0  0
   -5.2184    0.1442    1.7322 H   0  0  0  0  0  0  0  0  0  0  0  0
   -7.1762    0.5614    1.7020 H   0  0  0  0  0  0  0  0  0  0  0  0
   -9.4173    1.0621    2.2675 H   0  0  0  0  0  0  0  0  0  0  0  0
   -8.2225    0.6454   -1.8840 H   0  0  0  0  0  0  0  0  0  0  0  0
  -10.4798    1.0985   -2.5801 H   0  0  0  0  0  0  0  0  0  0  0  0
  -12.2590    1.5423   -0.9106 H   0  0  0  0  0  0  0  0  0  0  0  0
  1 35  1  0  0  0  0
  2 15  1  0  0  0  0
  2 17  1  0  0  0  0
  3 31  2  0  0  0  0
  4 13  1  0  0  0  0
  4 14  1  0  0  0  0
  4 16  1  0  0  0  0
  5 20  1  0  0  0  0
  5 24  2  0  0  0  0
  6 23  1  0  0  0  0
  6 25  1  0  0  0  0
  6 55  1  0  0  0  0
  7 23  2  0  0  0  0
  7 24  1  0  0  0  0
  8 28  1  0  0  0  0
  8 31  1  0  0  0  0
  8 61  1  0  0  0  0
  9 31  1  0  0  0  0
  9 32  1  0  0  0  0
  9 62  1  0  0  0  0
 10 11  1  0  0  0  0
 10 12  1  0  0  0  0
 10 15  1  0  0  0  0
 10 38  1  0  0  0  0
 11 13  1  0  0  0  0
 11 39  1  0  0  0  0
 11 40  1  0  0  0  0
 12 14  1  0  0  0  0
 12 41  1  0  0  0  0
 12 42  1  0  0  0  0
 13 43  1  0  0  0  0
 13 44  1  0  0  0  0
 14 45  1  0  0  0  0
 14 46  1  0  0  0  0
 15 47  1  0  0  0  0
 15 48  1  0  0  0  0
 16 49  1  0  0  0  0
 16 50  1  0  0  0  0
 16 51  1  0  0  0  0
 17 18  2  0  0  0  0
 17 19  1  0  0  0  0
 18 20  1  0  0  0  0
 18 52  1  0  0  0  0
 19 22  2  0  0  0  0
 19 53  1  0  0  0  0
 20 21  2  0  0  0  0
 21 22  1  0  0  0  0
 21 23  1  0  0  0  0
 22 54  1  0  0  0  0
 24 56  1  0  0  0  0
 25 26  2  0  0  0  0
 25 27  1  0  0  0  0
 26 29  1  0  0  0  0
 26 57  1  0  0  0  0
 27 30  2  0  0  0  0
 27 58  1  0  0  0  0
 28 29  2  0  0  0  0
 28 30  1  0  0  0  0
 29 59  1  0  0  0  0
 30 60  1  0  0  0  0
 32 33  2  0  0  0  0
 32 34  1  0  0  0  0
 33 35  1  0  0  0  0
 33 63  1  0  0  0  0
 34 36  2  0  0  0  0
 34 64  1  0  0  0  0
 35 37  2  0  0  0  0
 36 37  1  0  0  0  0
 36 65  1  0  0  0  0
 37 66  1  0  0  0  0
M  END
> <PUBCHEM_COMPOUND_CID>
56835147

> <PUBCHEM_CONFORMER_RMSD>
1

> <PUBCHEM_CONFORMER_DIVERSEORDER>
1
33
172
161
131
38
10
59
152
64
135
15
34
5
77
168
124
79
127
71
84
138
43
97
141
68
171
37
32
111
149
154
158
35
66
85
74
44
51
98
56
53
143
62
120
134
101
93
28
96
7
170
169
46
164
41
145
159
140
146
40
103
42
175
118
91
151
69
92
65
107
133
167
144
155
25
166
52
73
76
115
109
110
99
102
142
153
9
90
129
27
105
162
86
50
26
156
117
61
36
113
136
63
78
30
100
47
95
106
83
157
80
75
88
160
165
45
29
104
17
112
6
49
81
58
147
108
3
114
16
130
55
54
57
20
122
8
72
39
70
173
31
139
21
23
163
94
60
19
176
87
18
137
48
12
128
2
132
150
89
11
67
24
125
126
121
4
22
82
14
119
13
116
148
123
174

> <PUBCHEM_MMFF94_PARTIAL_CHARGES>
48
1 -0.19
13 0.27
14 0.27
15 0.28
16 0.27
17 0.08
18 -0.15
19 -0.15
2 -0.36
20 0.31
22 -0.15
23 0.41
24 0.47
25 0.1
26 -0.15
27 -0.15
28 0.12
29 -0.15
3 -0.57
30 -0.15
31 0.69
32 0.12
33 -0.15
34 -0.15
35 0.19
36 -0.15
37 -0.15
4 -0.81
5 -0.62
52 0.15
53 0.15
54 0.15
55 0.4
56 0.15
57 0.15
58 0.15
59 0.15
6 -0.6
60 0.15
61 0.37
62 0.37
63 0.15
64 0.15
65 0.15
66 0.15
7 -0.62
8 -0.55
9 -0.55

> <PUBCHEM_EFFECTIVE_ROTOR_COUNT>
10.2

> <PUBCHEM_PHARMACOPHORE_FEATURES>
13
1 2 acceptor
1 3 acceptor
1 4 cation
1 6 donor
1 8 donor
1 9 donor
3 5 7 24 cation
3 6 7 23 cation
6 17 18 19 20 21 22 rings
6 25 26 27 28 29 30 rings
6 32 33 34 35 36 37 rings
6 4 10 11 12 13 14 rings
6 5 7 20 21 23 24 rings

> <PUBCHEM_HEAVY_ATOM_COUNT>
37

> <PUBCHEM_ATOM_DEF_STEREO_COUNT>
0

> <PUBCHEM_ATOM_UDEF_STEREO_COUNT>
0

> <PUBCHEM_BOND_DEF_STEREO_COUNT>
0

> <PUBCHEM_BOND_UDEF_STEREO_COUNT>
0

> <PUBCHEM_ISOTOPIC_ATOM_COUNT>
0

> <PUBCHEM_COMPONENT_COUNT>
1

> <PUBCHEM_CACTVS_TAUTO_COUNT>
9

> <PUBCHEM_CONFORMER_ID>
03633C4B00000001

> <PUBCHEM_MMFF94_ENERGY>
125.095

> <PUBCHEM_FEATURE_SELFOVERLAP>
66.193

> <PUBCHEM_SHAPE_FINGERPRINT>
10 15 17530965826631759334
10029044 110 18273217517085936544
10168742 298 13470692563712912700
10533779 47 15936681593959865200
10930396 42 16298383578567233293
11408170 108 11242243044011702232
11607047 141 18041836209308187842
11607047 191 18113898295681297618
11966995 16 13686304547962672236
12089408 11 17988923328590795175
12559415 43 18408878551993585508
12838862 33 18260826012065526372
13530399 1 18201446814411626913
14040221 304 14189580780700263320
14040221 8 14692579805758296691
14117953 113 10592041362584862476
14202775 3 10015570719758265957
14344974 52 17989486355373216095
14617042 71 18408889546444640356
150020 25 14117511018744932287
15065858 18 17603586288966151027
15145344 44 17917996100588239488
15247644 1 10809638026286873521
15320294 125 11963395171491164488
155225 1 18272089409492018084
15840311 113 18408889517266066734
16728433 110 18335137558318116775
19302320 297 17530686550435958756
19315958 150 18041285379145898243
2026 5 8430052949313794616
20501277 279 18259704492946503204
20812841 46 18040432167165878714
21102433 48 12973892537570923905
21792965 96 11815635094202199043
21895431 317 10809611619894156880
232437 2 11241970382492213437
23576562 1 14476381803754792664
2851757 41 11170179953412856336
306946 40 18408039623745372593
4403749 210 18261682574405529907
44389302 135 13551187788217309785
4516262 110 18413670197221941646
4874694 18 17676491632022958579
5028188 123 17346593102367450047
54039377 194 9583523117973591882
57527293 21 14852181701285971438
57828716 57 13191153759573013200
6201320 215 12396566422714958423
9663363 56 11815890138197719302
9937071 3 9511457814506349956

> <PUBCHEM_SHAPE_MULTIPOLES>
712.54
48.66
3.04
1.56
44.76
1.2
0.1
-56.28
9.37
-8.31
1.15
-0.18
-0.36
0.75

> <PUBCHEM_SHAPE_SELFOVERLAP>
1548.07

> <PUBCHEM_SHAPE_VOLUME>
387.6

> <PUBCHEM_COORDINATE_TYPE>
2
5
10

$$$$
