5018815
  -OEChem-10062121563D

 54 57  0     0  0  0  0  0  0999 V2000
   -3.3428   -1.3838   -0.2018 O   0  0  0  0  0  0  0  0  0  0  0  0
    2.8600   -2.8143    0.3795 O   0  0  0  0  0  0  0  0  0  0  0  0
    5.0345    1.3439   -1.0451 O   0  0  0  0  0  0  0  0  0  0  0  0
   -5.3246   -0.1923   -0.0948 N   0  0  0  0  0  0  0  0  0  0  0  0
   -3.2343    0.9325    0.0387 N   0  0  0  0  0  0  0  0  0  0  0  0
    1.2487   -0.7550   -0.0620 N   0  0  0  0  0  0  0  0  0  0  0  0
    2.2319    1.8307    0.1972 N   0  0  0  0  0  0  0  0  0  0  0  0
   -6.1841   -1.2631    0.3933 C   0  0  0  0  0  0  0  0  0  0  0  0
   -6.0125    0.9972   -0.5928 C   0  0  0  0  0  0  0  0  0  0  0  0
   -5.9859   -2.5271   -0.4341 C   0  0  0  0  0  0  0  0  0  0  0  0
   -5.9189   -1.5233    1.8704 C   0  0  0  0  0  0  0  0  0  0  0  0
   -6.8901    0.6461   -1.7879 C   0  0  0  0  0  0  0  0  0  0  0  0
   -6.8279    1.6422    0.5203 C   0  0  0  0  0  0  0  0  0  0  0  0
   -3.9143   -0.2973   -0.0871 C   0  0  0  0  0  0  0  0  0  0  0  0
   -1.8587    1.1602    0.0777 C   0  0  0  0  0  0  0  0  0  0  0  0
    0.4098    0.2920    0.0261 C   0  0  0  0  0  0  0  0  0  0  0  0
   -0.9682    0.0919   -0.0116 C   0  0  0  0  0  0  0  0  0  0  0  0
    0.9077    1.6014    0.1572 C   0  0  0  0  0  0  0  0  0  0  0  0
   -1.3679    2.4509    0.2069 C   0  0  0  0  0  0  0  0  0  0  0  0
    0.0092    2.6622    0.2457 C   0  0  0  0  0  0  0  0  0  0  0  0
    2.5697   -0.5045   -0.0202 C   0  0  0  0  0  0  0  0  0  0  0  0
    3.0543    0.7699    0.1077 C   0  0  0  0  0  0  0  0  0  0  0  0
    3.4008   -1.6756   -0.1226 C   0  0  0  0  0  0  0  0  0  0  0  0
    4.4555    1.0970    0.1570 C   0  0  0  0  0  0  0  0  0  0  0  0
    4.6554   -1.9116   -0.6269 C   0  0  0  0  0  0  0  0  0  0  0  0
    5.3694    1.2193    1.1738 C   0  0  0  0  0  0  0  0  0  0  0  0
    4.9054   -3.2894   -0.4220 C   0  0  0  0  0  0  0  0  0  0  0  0
    6.5953    1.5651    0.5570 C   0  0  0  0  0  0  0  0  0  0  0  0
    3.7833   -3.7939    0.1931 C   0  0  0  0  0  0  0  0  0  0  0  0
    6.3392    1.6287   -0.7929 C   0  0  0  0  0  0  0  0  0  0  0  0
   -7.2374   -0.9849    0.3003 H   0  0  0  0  0  0  0  0  0  0  0  0
   -5.2920    1.7290   -0.9673 H   0  0  0  0  0  0  0  0  0  0  0  0
   -6.0287   -2.3144   -1.5076 H   0  0  0  0  0  0  0  0  0  0  0  0
   -6.7800   -3.2482   -0.2083 H   0  0  0  0  0  0  0  0  0  0  0  0
   -5.0402   -3.0345   -0.2239 H   0  0  0  0  0  0  0  0  0  0  0  0
   -6.6008   -2.2889    2.2557 H   0  0  0  0  0  0  0  0  0  0  0  0
   -4.8956   -1.8700    2.0505 H   0  0  0  0  0  0  0  0  0  0  0  0
   -6.0672   -0.6139    2.4625 H   0  0  0  0  0  0  0  0  0  0  0  0
   -6.3071    0.1354   -2.5623 H   0  0  0  0  0  0  0  0  0  0  0  0
   -7.3059    1.5572   -2.2330 H   0  0  0  0  0  0  0  0  0  0  0  0
   -7.7366    0.0027   -1.5300 H   0  0  0  0  0  0  0  0  0  0  0  0
   -7.2416    2.5979    0.1789 H   0  0  0  0  0  0  0  0  0  0  0  0
   -7.6722    1.0306    0.8519 H   0  0  0  0  0  0  0  0  0  0  0  0
   -6.1999    1.8481    1.3941 H   0  0  0  0  0  0  0  0  0  0  0  0
   -3.7969    1.7621    0.1975 H   0  0  0  0  0  0  0  0  0  0  0  0
   -1.2771   -0.9396   -0.1116 H   0  0  0  0  0  0  0  0  0  0  0  0
   -2.0397    3.3021    0.2784 H   0  0  0  0  0  0  0  0  0  0  0  0
    0.3807    3.6800    0.3473 H   0  0  0  0  0  0  0  0  0  0  0  0
    5.3223   -1.2175   -1.1132 H   0  0  0  0  0  0  0  0  0  0  0  0
    5.1829    1.0777    2.2290 H   0  0  0  0  0  0  0  0  0  0  0  0
    5.7896   -3.8468   -0.6953 H   0  0  0  0  0  0  0  0  0  0  0  0
    7.5468    1.7450    1.0363 H   0  0  0  0  0  0  0  0  0  0  0  0
    3.4997   -4.7759    0.5425 H   0  0  0  0  0  0  0  0  0  0  0  0
    6.9448    1.8504   -1.6594 H   0  0  0  0  0  0  0  0  0  0  0  0
  1 14  2  0  0  0  0
  2 23  1  0  0  0  0
  2 29  1  0  0  0  0
  3 24  1  0  0  0  0
  3 30  1  0  0  0  0
  4  8  1  0  0  0  0
  4  9  1  0  0  0  0
  4 14  1  0  0  0  0
  5 14  1  0  0  0  0
  5 15  1  0  0  0  0
  5 45  1  0  0  0  0
  6 16  1  0  0  0  0
  6 21  2  0  0  0  0
  7 18  1  0  0  0  0
  7 22  2  0  0  0  0
  8 10  1  0  0  0  0
  8 11  1  0  0  0  0
  8 31  1  0  0  0  0
  9 12  1  0  0  0  0
  9 13  1  0  0  0  0
  9 32  1  0  0  0  0
 10 33  1  0  0  0  0
 10 34  1  0  0  0  0
 10 35  1  0  0  0  0
 11 36  1  0  0  0  0
 11 37  1  0  0  0  0
 11 38  1  0  0  0  0
 12 39  1  0  0  0  0
 12 40  1  0  0  0  0
 12 41  1  0  0  0  0
 13 42  1  0  0  0  0
 13 43  1  0  0  0  0
 13 44  1  0  0  0  0
 15 17  2  0  0  0  0
 15 19  1  0  0  0  0
 16 17  1  0  0  0  0
 16 18  2  0  0  0  0
 17 46  1  0  0  0  0
 18 20  1  0  0  0  0
 19 20  2  0  0  0  0
 19 47  1  0  0  0  0
 20 48  1  0  0  0  0
 21 22  1  0  0  0  0
 21 23  1  0  0  0  0
 22 24  1  0  0  0  0
 23 25  2  0  0  0  0
 24 26  2  0  0  0  0
 25 27  1  0  0  0  0
 25 49  1  0  0  0  0
 26 28  1  0  0  0  0
 26 50  1  0  0  0  0
 27 29  2  0  0  0  0
 27 51  1  0  0  0  0
 28 30  2  0  0  0  0
 28 52  1  0  0  0  0
 29 53  1  0  0  0  0
 30 54  1  0  0  0  0
M  END
> <PUBCHEM_COMPOUND_CID>
5018815

> <PUBCHEM_CONFORMER_RMSD>
0.8

> <PUBCHEM_CONFORMER_DIVERSEORDER>
8
20
21
4
17
40
23
35
16
30
19
22
42
2
25
9
38
28
32
26
6
10
43
33
24
13
44
36
5
12
18
39
7
14
3
1
34
41
29
37
31
15
27
11

> <PUBCHEM_MMFF94_PARTIAL_CHARGES>
36
1 -0.57
14 0.69
15 0.12
16 0.31
17 -0.15
18 0.31
19 -0.15
2 -0.28
20 -0.15
21 0.36
22 0.36
23 0.09
24 0.09
25 -0.15
26 -0.15
27 -0.15
28 -0.15
29 -0.01
3 -0.28
30 -0.01
4 -0.66
45 0.37
46 0.15
47 0.15
48 0.15
49 0.15
5 -0.55
50 0.15
51 0.15
52 0.15
53 0.15
54 0.15
6 -0.62
7 -0.62
8 0.3
9 0.3

> <PUBCHEM_EFFECTIVE_ROTOR_COUNT>
7

> <PUBCHEM_PHARMACOPHORE_FEATURES>
12
1 1 acceptor
1 2 acceptor
1 3 acceptor
1 5 donor
1 6 acceptor
1 7 acceptor
3 8 10 11 hydrophobe
3 9 12 13 hydrophobe
5 2 23 25 27 29 rings
5 3 24 26 28 30 rings
6 15 16 17 18 19 20 rings
6 6 7 16 18 21 22 rings

> <PUBCHEM_HEAVY_ATOM_COUNT>
30

> <PUBCHEM_ATOM_DEF_STEREO_COUNT>
0

> <PUBCHEM_ATOM_UDEF_STEREO_COUNT>
0

> <PUBCHEM_BOND_DEF_STEREO_COUNT>
0

> <PUBCHEM_BOND_UDEF_STEREO_COUNT>
0

> <PUBCHEM_ISOTOPIC_ATOM_COUNT>
0

> <PUBCHEM_COMPONENT_COUNT>
1

> <PUBCHEM_CACTVS_TAUTO_COUNT>
3

> <PUBCHEM_CONFORMER_ID>
004C94BF00000008

> <PUBCHEM_MMFF94_ENERGY>
81.4777

> <PUBCHEM_FEATURE_SELFOVERLAP>
60.948

> <PUBCHEM_SHAPE_FINGERPRINT>
10050765 1 18267303123760212280
10673678 19 17897739879626704692
10835480 77 18335415760313892557
10906281 52 18187659041087063024
11135926 11 18339631317806465870
11408170 132 18262518066088191797
11475781 23 17313652747047417813
117089 54 17695637247008247118
11719270 70 18409162234398025346
11796584 16 17749384876013422033
11963148 33 18337101371658649522
12107183 9 17838908035880576353
12516196 113 18272089430734830505
12730499 353 18413111688860198976
12788726 201 17489315152664370649
13073987 5 18341618096794916033
13140716 1 18054220210023056272
13383665 225 17968956184134564508
13533116 47 18271240530543318888
14461889 52 18334857246882164954
15183329 4 18409726266693968881
15537594 2 18130784589852124374
1577012 14 17988922250469445173
17492 89 18267303128197370466
18335252 98 18335426794000343467
21033650 10 16444473368909236277
21279426 13 18261954051451793927
21521721 280 18127697234881028824
22149856 69 18339939155065638249
22224240 67 18270394014549949296
22311459 1 18411417354084786872
22956985 138 17972021558761154066
23081809 10 17917707968748659781
23522609 53 17987821630128957225
23559900 14 18411411839626067985
24771750 20 17681849723092714365
25222932 49 18272086157848341398
25269216 80 16226632748553393563
255183 451 18056484950863394166
3004659 81 18187927231381806294
314194 84 18343017809346069143
3178227 256 18269561692484379160
4073 2 18260271858558802091
4093350 32 17417819422201265462
46194498 28 17676206922023030444
5104073 3 18200596886672885584
5109719 28 18128536153552467216
59755656 215 18411418431962867940
6086070 43 16916776358854708673

> <PUBCHEM_SHAPE_MULTIPOLES>
579.85
20.05
3.57
1.01
17.46
2.85
0.04
1.65
-1.16
-3.82
0.13
1.01
0.02
0.94

> <PUBCHEM_SHAPE_SELFOVERLAP>
1271.193

> <PUBCHEM_SHAPE_VOLUME>
315.6

> <PUBCHEM_COORDINATE_TYPE>
2
5
10

$$$$
