49830612
  -OEChem-10062121553D

 60 63  0     0  0  0  0  0  0999 V2000
   -0.2861   -2.3474    1.6937 F   0  0  0  0  0  0  0  0  0  0  0  0
    2.7025   -4.7688   -1.0571 F   0  0  0  0  0  0  0  0  0  0  0  0
    5.7840   -0.8724    0.6257 O   0  0  0  0  0  0  0  0  0  0  0  0
   -5.0581   -0.4909    0.7130 O   0  0  0  0  0  0  0  0  0  0  0  0
    3.5578    1.7698   -0.0174 N   0  0  0  0  0  0  0  0  0  0  0  0
   -2.1014    1.1720   -0.4467 N   0  0  0  0  0  0  0  0  0  0  0  0
    1.3393    1.1881   -0.3876 N   0  0  0  0  0  0  0  0  0  0  0  0
   -2.3924   -1.0040   -0.0337 N   0  0  0  0  0  0  0  0  0  0  0  0
    2.5428    2.5797   -1.9439 N   0  0  0  0  0  0  0  0  0  0  0  0
   -4.7341    1.7741    0.2750 N   0  0  0  0  0  0  0  0  0  0  0  0
    5.0125    1.0845    1.8738 C   0  0  0  0  0  0  0  0  0  0  0  0
    3.6091    1.0293    1.2225 C   0  0  0  0  0  0  0  0  0  0  0  0
    6.0966    0.4745    0.9575 C   0  0  0  0  0  0  0  0  0  0  0  0
    5.3994    2.5379    2.2044 C   0  0  0  0  0  0  0  0  0  0  0  0
    4.9516    0.2857    3.1925 C   0  0  0  0  0  0  0  0  0  0  0  0
   -0.9036    0.5791   -0.7275 C   0  0  0  0  0  0  0  0  0  0  0  0
    2.4306    1.8494   -0.8180 C   0  0  0  0  0  0  0  0  0  0  0  0
   -1.1079   -0.7605   -0.4656 C   0  0  0  0  0  0  0  0  0  0  0  0
    0.2600    1.2869   -1.1911 C   0  0  0  0  0  0  0  0  0  0  0  0
   -2.9570    0.1792   -0.0356 C   0  0  0  0  0  0  0  0  0  0  0  0
   -0.1267   -1.7939   -0.6140 C   0  0  0  0  0  0  0  0  0  0  0  0
   -4.2933    0.5500    0.3210 C   0  0  0  0  0  0  0  0  0  0  0  0
   -2.5464    2.4820   -0.5042 C   0  0  0  0  0  0  0  0  0  0  0  0
    0.2450    2.0038   -2.3702 C   0  0  0  0  0  0  0  0  0  0  0  0
    1.4266    2.6361   -2.6997 C   0  0  0  0  0  0  0  0  0  0  0  0
   -6.3825   -0.1254    1.0667 C   0  0  0  0  0  0  0  0  0  0  0  0
   -3.8224    2.7363   -0.1488 C   0  0  0  0  0  0  0  0  0  0  0  0
    0.2554   -2.5623    0.4858 C   0  0  0  0  0  0  0  0  0  0  0  0
    0.4470   -2.0305   -1.8633 C   0  0  0  0  0  0  0  0  0  0  0  0
   -7.3234   -1.2751    0.7397 C   0  0  0  0  0  0  0  0  0  0  0  0
   -6.4243    0.2389    2.5429 C   0  0  0  0  0  0  0  0  0  0  0  0
    1.2113   -3.5672    0.3361 C   0  0  0  0  0  0  0  0  0  0  0  0
    1.4030   -3.0352   -2.0129 C   0  0  0  0  0  0  0  0  0  0  0  0
    1.7851   -3.8036   -0.9131 C   0  0  0  0  0  0  0  0  0  0  0  0
    2.8685    1.4427    1.9196 H   0  0  0  0  0  0  0  0  0  0  0  0
    3.3280   -0.0156    1.0383 H   0  0  0  0  0  0  0  0  0  0  0  0
    7.0708    0.4797    1.4599 H   0  0  0  0  0  0  0  0  0  0  0  0
    6.2013    1.0398    0.0256 H   0  0  0  0  0  0  0  0  0  0  0  0
    4.6352    3.0183    2.8257 H   0  0  0  0  0  0  0  0  0  0  0  0
    6.3456    2.5754    2.7567 H   0  0  0  0  0  0  0  0  0  0  0  0
    5.5280    3.1453    1.3026 H   0  0  0  0  0  0  0  0  0  0  0  0
    5.9268    0.2727    3.6923 H   0  0  0  0  0  0  0  0  0  0  0  0
    4.2288    0.7271    3.8882 H   0  0  0  0  0  0  0  0  0  0  0  0
    4.6515   -0.7539    3.0206 H   0  0  0  0  0  0  0  0  0  0  0  0
    4.3760    2.2674   -0.3470 H   0  0  0  0  0  0  0  0  0  0  0  0
    6.5014   -1.2005    0.0573 H   0  0  0  0  0  0  0  0  0  0  0  0
   -1.8646    3.2599   -0.8221 H   0  0  0  0  0  0  0  0  0  0  0  0
   -0.6246    2.0710   -3.0121 H   0  0  0  0  0  0  0  0  0  0  0  0
    1.5115    3.2215   -3.6089 H   0  0  0  0  0  0  0  0  0  0  0  0
   -6.7516    0.7226    0.4756 H   0  0  0  0  0  0  0  0  0  0  0  0
   -4.2012    3.7523   -0.1798 H   0  0  0  0  0  0  0  0  0  0  0  0
    0.1578   -1.4503   -2.7365 H   0  0  0  0  0  0  0  0  0  0  0  0
   -7.2745   -1.5163   -0.3277 H   0  0  0  0  0  0  0  0  0  0  0  0
   -8.3588   -1.0306    0.9960 H   0  0  0  0  0  0  0  0  0  0  0  0
   -7.0335   -2.1828    1.2804 H   0  0  0  0  0  0  0  0  0  0  0  0
   -5.7681    1.0871    2.7631 H   0  0  0  0  0  0  0  0  0  0  0  0
   -7.4394    0.5002    2.8577 H   0  0  0  0  0  0  0  0  0  0  0  0
   -6.0735   -0.5963    3.1595 H   0  0  0  0  0  0  0  0  0  0  0  0
    1.5090   -4.1653    1.1921 H   0  0  0  0  0  0  0  0  0  0  0  0
    1.8486   -3.2209   -2.9857 H   0  0  0  0  0  0  0  0  0  0  0  0
  1 28  1  0  0  0  0
  2 34  1  0  0  0  0
  3 13  1  0  0  0  0
  3 46  1  0  0  0  0
  4 22  1  0  0  0  0
  4 26  1  0  0  0  0
  5 12  1  0  0  0  0
  5 17  1  0  0  0  0
  5 45  1  0  0  0  0
  6 16  1  0  0  0  0
  6 20  1  0  0  0  0
  6 23  1  0  0  0  0
  7 17  1  0  0  0  0
  7 19  2  0  0  0  0
  8 18  1  0  0  0  0
  8 20  2  0  0  0  0
  9 17  2  0  0  0  0
  9 25  1  0  0  0  0
 10 22  2  0  0  0  0
 10 27  1  0  0  0  0
 11 12  1  0  0  0  0
 11 13  1  0  0  0  0
 11 14  1  0  0  0  0
 11 15  1  0  0  0  0
 12 35  1  0  0  0  0
 12 36  1  0  0  0  0
 13 37  1  0  0  0  0
 13 38  1  0  0  0  0
 14 39  1  0  0  0  0
 14 40  1  0  0  0  0
 14 41  1  0  0  0  0
 15 42  1  0  0  0  0
 15 43  1  0  0  0  0
 15 44  1  0  0  0  0
 16 18  2  0  0  0  0
 16 19  1  0  0  0  0
 18 21  1  0  0  0  0
 19 24  1  0  0  0  0
 20 22  1  0  0  0  0
 21 28  2  0  0  0  0
 21 29  1  0  0  0  0
 23 27  2  0  0  0  0
 23 47  1  0  0  0  0
 24 25  2  0  0  0  0
 24 48  1  0  0  0  0
 25 49  1  0  0  0  0
 26 30  1  0  0  0  0
 26 31  1  0  0  0  0
 26 50  1  0  0  0  0
 27 51  1  0  0  0  0
 28 32  1  0  0  0  0
 29 33  2  0  0  0  0
 29 52  1  0  0  0  0
 30 53  1  0  0  0  0
 30 54  1  0  0  0  0
 30 55  1  0  0  0  0
 31 56  1  0  0  0  0
 31 57  1  0  0  0  0
 31 58  1  0  0  0  0
 32 34  2  0  0  0  0
 32 59  1  0  0  0  0
 33 34  1  0  0  0  0
 33 60  1  0  0  0  0
M  END
> <PUBCHEM_COMPOUND_CID>
49830612

> <PUBCHEM_CONFORMER_RMSD>
1

> <PUBCHEM_CONFORMER_DIVERSEORDER>
1
12
45
55
57
47
30
41
60
8
23
52
4
6
56
11
14
39
50
21
53
25
19
46
37
13
35
54
3
48
49
32
42
44
43
31
9
58
2
5
34
18
33
28
20
26
24
10
22
27
7
59
40
51
15
29
38
16
36
17

> <PUBCHEM_MMFF94_PARTIAL_CHARGES>
38
1 -0.19
10 -0.62
12 0.37
13 0.28
16 -0.2
17 0.72
18 0.17
19 0.36
2 -0.19
20 0.1
21 0.05
22 0.69
23 -0.18
24 -0.15
25 0.16
26 0.28
27 0.02
28 0.19
29 -0.15
3 -0.68
32 -0.15
33 -0.15
34 0.19
4 -0.43
45 0.4
46 0.4
47 0.15
48 0.15
49 0.15
5 -0.87
51 0.15
52 0.15
59 0.15
6 0.33
60 0.15
7 -0.62
8 -0.57
9 -0.62

> <PUBCHEM_EFFECTIVE_ROTOR_COUNT>
8

> <PUBCHEM_PHARMACOPHORE_FEATURES>
12
1 3 acceptor
1 3 donor
1 5 donor
1 7 acceptor
3 11 14 15 hydrophobe
3 26 30 31 hydrophobe
3 6 8 20 cation
4 5 7 9 17 cation
5 6 8 16 18 20 rings
6 21 28 29 32 33 34 rings
6 6 10 20 22 23 27 rings
6 7 9 17 19 24 25 rings

> <PUBCHEM_HEAVY_ATOM_COUNT>
34

> <PUBCHEM_ATOM_DEF_STEREO_COUNT>
0

> <PUBCHEM_ATOM_UDEF_STEREO_COUNT>
0

> <PUBCHEM_BOND_DEF_STEREO_COUNT>
0

> <PUBCHEM_BOND_UDEF_STEREO_COUNT>
0

> <PUBCHEM_ISOTOPIC_ATOM_COUNT>
0

> <PUBCHEM_COMPONENT_COUNT>
1

> <PUBCHEM_CACTVS_TAUTO_COUNT>
3

> <PUBCHEM_CONFORMER_ID>
02F85AD400000001

> <PUBCHEM_MMFF94_ENERGY>
96.1776

> <PUBCHEM_FEATURE_SELFOVERLAP>
61.012

> <PUBCHEM_SHAPE_FINGERPRINT>
11445158 3 17896878949026380765
11607047 141 16914848872237600703
12422481 6 18263348218983689216
12741549 16 16765611999157470394
12788726 201 17472706196314065262
12839892 36 18337110172056207599
13140716 1 17979931715761893005
13402501 40 18339357441276027310
13540713 4 18192430771591733085
13692114 37 18269838773652017031
14028597 1 17489596631856927619
15064986 96 18196074574284456274
15775530 1 17396958190482189364
16110190 28 18115015412274388024
16728300 4 17822834429891472737
16994733 274 15841555193192558401
17913733 40 18202566163964899579
1979834 28 18409733954041434864
20505436 4 17390810108086149484
20554085 129 17988652933664343785
21033648 29 18059000813787410594
21304304 249 17894631478470696107
21792934 111 18263938661888254065
22149856 69 18198369367533034667
22182313 1 18188769419124308885
22956985 138 17971470702691936658
23559900 14 18117852006128714997
23728640 28 18124019398508437162
3411729 13 18269550550832408025
465052 167 17458350766137493993
5104073 3 18197511632224984577
5171179 24 17619327828503872804
5265222 85 18340208596367158132
5385378 56 18201727223312586506
563151 248 18060133271207552382
6679774 75 18187936109860559154

> <PUBCHEM_SHAPE_MULTIPOLES>
643.53
13.94
4.54
2.53
10.98
4.74
0.42
-4.66
13.72
-3.55
-2.23
-2.39
-0.99
1.56

> <PUBCHEM_SHAPE_SELFOVERLAP>
1399.565

> <PUBCHEM_SHAPE_VOLUME>
354.5

> <PUBCHEM_COORDINATE_TYPE>
2
5
10

$$$$
