19934548
  -OEChem-10052120443D

 29 31  0     0  0  0  0  0  0999 V2000
   -1.4339    2.8103   -0.0019 O   0  0  0  0  0  0  0  0  0  0  0  0
   -0.2387   -1.3685   -0.0011 N   0  0  0  0  0  0  0  0  0  0  0  0
    0.4312    1.5864    0.0003 N   0  0  0  0  0  0  0  0  0  0  0  0
    1.0453   -0.8240   -0.0007 C   0  0  0  0  0  0  0  0  0  0  0  0
    1.3513    0.5307    0.0003 C   0  0  0  0  0  0  0  0  0  0  0  0
   -1.5295   -0.8331   -0.0002 C   0  0  0  0  0  0  0  0  0  0  0  0
   -1.8700    0.5200   -0.0001 C   0  0  0  0  0  0  0  0  0  0  0  0
    2.7063    0.9339    0.0010 C   0  0  0  0  0  0  0  0  0  0  0  0
    3.7488    0.0106    0.0003 C   0  0  0  0  0  0  0  0  0  0  0  0
    2.1212   -1.7466   -0.0015 C   0  0  0  0  0  0  0  0  0  0  0  0
   -0.9387    1.6759   -0.0007 C   0  0  0  0  0  0  0  0  0  0  0  0
    3.4543   -1.3403   -0.0010 C   0  0  0  0  0  0  0  0  0  0  0  0
   -2.5821   -1.7874    0.0005 C   0  0  0  0  0  0  0  0  0  0  0  0
   -3.2450    0.8704    0.0004 C   0  0  0  0  0  0  0  0  0  0  0  0
   -3.9263   -1.4257    0.0012 C   0  0  0  0  0  0  0  0  0  0  0  0
    5.1651    0.4736    0.0021 C   0  0  0  0  0  0  0  0  0  0  0  0
   -4.2593   -0.0863    0.0010 C   0  0  0  0  0  0  0  0  0  0  0  0
   -0.2331   -2.3856   -0.0014 H   0  0  0  0  0  0  0  0  0  0  0  0
    2.9533    1.9956    0.0004 H   0  0  0  0  0  0  0  0  0  0  0  0
    0.8690    2.5061    0.0005 H   0  0  0  0  0  0  0  0  0  0  0  0
    1.9161   -2.8168   -0.0029 H   0  0  0  0  0  0  0  0  0  0  0  0
    4.2419   -2.0882   -0.0032 H   0  0  0  0  0  0  0  0  0  0  0  0
   -2.3463   -2.8517    0.0005 H   0  0  0  0  0  0  0  0  0  0  0  0
   -3.5640    1.9114    0.0005 H   0  0  0  0  0  0  0  0  0  0  0  0
   -4.6994   -2.1872    0.0017 H   0  0  0  0  0  0  0  0  0  0  0  0
    5.4776    0.7323   -1.0145 H   0  0  0  0  0  0  0  0  0  0  0  0
    5.2873    1.3525    0.6444 H   0  0  0  0  0  0  0  0  0  0  0  0
    5.8392   -0.3000    0.3855 H   0  0  0  0  0  0  0  0  0  0  0  0
   -5.3004    0.2215    0.0014 H   0  0  0  0  0  0  0  0  0  0  0  0
  1 11  2  0  0  0  0
  2  4  1  0  0  0  0
  2  6  1  0  0  0  0
  2 18  1  0  0  0  0
  3  5  1  0  0  0  0
  3 11  1  0  0  0  0
  3 20  1  0  0  0  0
  4  5  2  0  0  0  0
  4 10  1  0  0  0  0
  5  8  1  0  0  0  0
  6  7  1  0  0  0  0
  6 13  2  0  0  0  0
  7 11  1  0  0  0  0
  7 14  2  0  0  0  0
  8  9  2  0  0  0  0
  8 19  1  0  0  0  0
  9 12  1  0  0  0  0
  9 16  1  0  0  0  0
 10 12  2  0  0  0  0
 10 21  1  0  0  0  0
 12 22  1  0  0  0  0
 13 15  1  0  0  0  0
 13 23  1  0  0  0  0
 14 17  1  0  0  0  0
 14 24  1  0  0  0  0
 15 17  2  0  0  0  0
 15 25  1  0  0  0  0
 16 26  1  0  0  0  0
 16 27  1  0  0  0  0
 16 28  1  0  0  0  0
 17 29  1  0  0  0  0
M  END
> <PUBCHEM_COMPOUND_CID>
19934548

> <PUBCHEM_CONFORMER_RMSD>
0.4

> <PUBCHEM_CONFORMER_DIVERSEORDER>
1

> <PUBCHEM_MMFF94_PARTIAL_CHARGES>
26
1 -0.57
10 -0.15
11 0.54
12 -0.15
13 -0.15
14 -0.15
15 -0.15
16 0.14
17 -0.15
18 0.4
19 0.15
2 -0.6
20 0.37
21 0.15
22 0.15
23 0.15
24 0.15
25 0.15
29 0.15
3 -0.55
4 0.1
5 0.12
6 0.1
7 0.09
8 -0.15
9 -0.14

> <PUBCHEM_EFFECTIVE_ROTOR_COUNT>
0.4

> <PUBCHEM_PHARMACOPHORE_FEATURES>
7
1 1 acceptor
1 2 cation
1 2 donor
1 3 donor
6 4 5 8 9 10 12 rings
6 6 7 13 14 15 17 rings
7 2 3 4 5 6 7 11 rings

> <PUBCHEM_HEAVY_ATOM_COUNT>
17

> <PUBCHEM_ATOM_DEF_STEREO_COUNT>
0

> <PUBCHEM_ATOM_UDEF_STEREO_COUNT>
0

> <PUBCHEM_BOND_DEF_STEREO_COUNT>
0

> <PUBCHEM_BOND_UDEF_STEREO_COUNT>
0

> <PUBCHEM_ISOTOPIC_ATOM_COUNT>
0

> <PUBCHEM_COMPONENT_COUNT>
1

> <PUBCHEM_CACTVS_TAUTO_COUNT>
5

> <PUBCHEM_CONFORMER_ID>
01302D5400000001

> <PUBCHEM_MMFF94_ENERGY>
76.1858

> <PUBCHEM_FEATURE_SELFOVERLAP>
35.533

> <PUBCHEM_SHAPE_FINGERPRINT>
10608611 8 18340201895479275592
10616163 171 18412266129283591590
10618630 7 18409449189072315695
10967382 1 18338516446953418279
11132069 177 18411979161017056226
11471102 20 18410289216161866286
11806522 49 18408323298087775460
12032990 46 18410296942897676499
12236239 1 17821728339006502636
13140716 1 18194687187745967345
13214271 11 18341891913686747319
13221675 6 18411418405871180766
13583140 156 14117517610739074479
138480 1 15095924238622082885
14115302 16 17895484712194044783
15196674 1 18410856529617333446
15442244 35 18121216481101989618
15536298 74 18342458123509777046
16945 1 18338517434822244133
17492 89 18336826377434219202
17802600 8 18412821395851522832
17804303 29 18342460373951340369
18522853 276 18411699898069867722
19107657 46 18411700988938943407
200 152 18131346432168297471
20510252 161 18271526386038797913
21029758 11 18341607140391430873
21267235 1 18410302440292538383
21501502 16 18265896861145938570
221490 88 18046913954939973571
2297311 6 18271258174453632860
23402539 116 18341324573923438558
23402655 69 18412822460813430319
23463225 33 18409731772176962487
23557571 272 18272661150995379750
23559900 14 18268706109287129954
26918003 58 17894911858030292587
2748010 2 18194958780182375065
2871803 45 18408319973651375478
3312278 4 18409449184940904691
335352 9 18194401078715789727
34934 24 18410285900547405415
4214541 1 18338517435196900932
474 4 17168998944698562844
5104073 3 18411418371701360394
537710 114 18409454712432127797
7364860 26 18196653127458723457
8809292 202 18261114109882125691
9709674 26 18411424977324468846

> <PUBCHEM_SHAPE_MULTIPOLES>
334.02
8.4
2.18
0.6
3.32
0.59
0
-1.18
0.01
-0.81
0
0.01
-0.02
0

> <PUBCHEM_SHAPE_SELFOVERLAP>
738.563

> <PUBCHEM_SHAPE_VOLUME>
176.7

> <PUBCHEM_COORDINATE_TYPE>
2
5
10

$$$$
