49830495
  -OEChem-10062121553D

 40 42  0     0  0  0  0  0  0999 V2000
    1.3703    3.6426   -1.0125 O   0  0  0  0  0  0  0  0  0  0  0  0
    1.3984    0.3378   -0.0365 N   0  0  0  0  0  0  0  0  0  0  0  0
    1.4119    3.5711    1.2792 N   0  0  0  0  0  0  0  0  0  0  0  0
   -5.5345   -2.3468   -0.0097 N   0  0  0  0  0  0  0  0  0  0  0  0
    0.0757    0.8329   -0.0054 C   0  0  0  0  0  0  0  0  0  0  0  0
   -2.3010    0.3989    0.0160 C   0  0  0  0  0  0  0  0  0  0  0  0
    1.7022   -1.0579   -0.0765 C   0  0  0  0  0  0  0  0  0  0  0  0
   -0.1744    2.2046    0.0331 C   0  0  0  0  0  0  0  0  0  0  0  0
   -0.9875   -0.0699   -0.0138 C   0  0  0  0  0  0  0  0  0  0  0  0
    3.1901   -1.2741   -0.0661 C   0  0  0  0  0  0  0  0  0  0  0  0
   -2.5512    1.7705    0.0544 C   0  0  0  0  0  0  0  0  0  0  0  0
   -1.4879    2.6735    0.0631 C   0  0  0  0  0  0  0  0  0  0  0  0
   -3.4041   -0.5371    0.0071 C   0  0  0  0  0  0  0  0  0  0  0  0
    3.8944   -1.3363   -1.2685 C   0  0  0  0  0  0  0  0  0  0  0  0
    3.8662   -1.4120    1.1462 C   0  0  0  0  0  0  0  0  0  0  0  0
    0.9138    3.1741    0.0432 C   0  0  0  0  0  0  0  0  0  0  0  0
   -4.6186   -0.1804   -0.5687 C   0  0  0  0  0  0  0  0  0  0  0  0
   -3.2538   -1.7977    0.5745 C   0  0  0  0  0  0  0  0  0  0  0  0
    5.2749   -1.5366   -1.2585 C   0  0  0  0  0  0  0  0  0  0  0  0
    5.2467   -1.6121    1.1562 C   0  0  0  0  0  0  0  0  0  0  0  0
    5.9510   -1.6743   -0.0462 C   0  0  0  0  0  0  0  0  0  0  0  0
   -5.6432   -1.1129   -0.5513 C   0  0  0  0  0  0  0  0  0  0  0  0
   -4.3395   -2.6579    0.5405 C   0  0  0  0  0  0  0  0  0  0  0  0
    1.2696   -1.5817    0.7859 H   0  0  0  0  0  0  0  0  0  0  0  0
    1.2857   -1.5258   -0.9779 H   0  0  0  0  0  0  0  0  0  0  0  0
   -0.7968   -1.1359   -0.0809 H   0  0  0  0  0  0  0  0  0  0  0  0
    2.1539    1.0139   -0.0350 H   0  0  0  0  0  0  0  0  0  0  0  0
   -3.5559    2.1806    0.1080 H   0  0  0  0  0  0  0  0  0  0  0  0
   -1.6955    3.7400    0.0994 H   0  0  0  0  0  0  0  0  0  0  0  0
    3.3796   -1.2283   -2.2195 H   0  0  0  0  0  0  0  0  0  0  0  0
    3.3292   -1.3632    2.0898 H   0  0  0  0  0  0  0  0  0  0  0  0
   -4.7947    0.7739   -1.0529 H   0  0  0  0  0  0  0  0  0  0  0  0
   -2.3469   -2.1302    1.0675 H   0  0  0  0  0  0  0  0  0  0  0  0
    5.8235   -1.5845   -2.1946 H   0  0  0  0  0  0  0  0  0  0  0  0
    5.7732   -1.7187    2.1000 H   0  0  0  0  0  0  0  0  0  0  0  0
    7.0258   -1.8298   -0.0385 H   0  0  0  0  0  0  0  0  0  0  0  0
   -6.6080   -0.8868   -0.9935 H   0  0  0  0  0  0  0  0  0  0  0  0
   -4.2766   -3.6497    0.9762 H   0  0  0  0  0  0  0  0  0  0  0  0
    2.1651    4.2476    1.3454 H   0  0  0  0  0  0  0  0  0  0  0  0
    1.0459    3.2031    2.1515 H   0  0  0  0  0  0  0  0  0  0  0  0
  1 16  2  0  0  0  0
  2  5  1  0  0  0  0
  2  7  1  0  0  0  0
  2 27  1  0  0  0  0
  3 16  1  0  0  0  0
  3 39  1  0  0  0  0
  3 40  1  0  0  0  0
  4 22  2  0  0  0  0
  4 23  1  0  0  0  0
  5  8  2  0  0  0  0
  5  9  1  0  0  0  0
  6  9  2  0  0  0  0
  6 11  1  0  0  0  0
  6 13  1  0  0  0  0
  7 10  1  0  0  0  0
  7 24  1  0  0  0  0
  7 25  1  0  0  0  0
  8 12  1  0  0  0  0
  8 16  1  0  0  0  0
  9 26  1  0  0  0  0
 10 14  2  0  0  0  0
 10 15  1  0  0  0  0
 11 12  2  0  0  0  0
 11 28  1  0  0  0  0
 12 29  1  0  0  0  0
 13 17  2  0  0  0  0
 13 18  1  0  0  0  0
 14 19  1  0  0  0  0
 14 30  1  0  0  0  0
 15 20  2  0  0  0  0
 15 31  1  0  0  0  0
 17 22  1  0  0  0  0
 17 32  1  0  0  0  0
 18 23  2  0  0  0  0
 18 33  1  0  0  0  0
 19 21  2  0  0  0  0
 19 34  1  0  0  0  0
 20 21  1  0  0  0  0
 20 35  1  0  0  0  0
 21 36  1  0  0  0  0
 22 37  1  0  0  0  0
 23 38  1  0  0  0  0
M  END
> <PUBCHEM_COMPOUND_CID>
49830495

> <PUBCHEM_CONFORMER_RMSD>
0.8

> <PUBCHEM_CONFORMER_DIVERSEORDER>
1
8
9
14
15
10
5
16
12
4
6
3
11
7
13
2

> <PUBCHEM_MMFF94_PARTIAL_CHARGES>
36
1 -0.57
10 -0.14
11 -0.15
12 -0.15
14 -0.15
15 -0.15
16 0.54
17 -0.15
18 -0.15
19 -0.15
2 -0.87
20 -0.15
21 -0.15
22 0.16
23 0.16
26 0.15
27 0.4
28 0.15
29 0.15
3 -0.8
30 0.15
31 0.15
32 0.15
33 0.15
34 0.15
35 0.15
36 0.15
37 0.15
38 0.15
39 0.37
4 -0.62
40 0.37
5 0.1
7 0.51
8 0.09
9 -0.15

> <PUBCHEM_EFFECTIVE_ROTOR_COUNT>
5

> <PUBCHEM_PHARMACOPHORE_FEATURES>
8
1 1 acceptor
1 2 cation
1 2 donor
1 3 donor
1 4 acceptor
6 10 14 15 19 20 21 rings
6 4 13 17 18 22 23 rings
6 5 6 8 9 11 12 rings

> <PUBCHEM_HEAVY_ATOM_COUNT>
23

> <PUBCHEM_ATOM_DEF_STEREO_COUNT>
0

> <PUBCHEM_ATOM_UDEF_STEREO_COUNT>
0

> <PUBCHEM_BOND_DEF_STEREO_COUNT>
0

> <PUBCHEM_BOND_UDEF_STEREO_COUNT>
0

> <PUBCHEM_ISOTOPIC_ATOM_COUNT>
0

> <PUBCHEM_COMPONENT_COUNT>
1

> <PUBCHEM_CACTVS_TAUTO_COUNT>
7

> <PUBCHEM_CONFORMER_ID>
02F85A5F00000001

> <PUBCHEM_MMFF94_ENERGY>
88.714

> <PUBCHEM_FEATURE_SELFOVERLAP>
40.596

> <PUBCHEM_SHAPE_FINGERPRINT>
10050765 1 18410575124099331349
10411042 1 18410856568340565439
1100329 8 18340773624863471129
11045515 52 17968661519064990660
11056379 131 18122350077711156284
11265709 11 18410014316822153881
11578080 2 17604690232130116204
11963148 33 17617373330843488119
12166972 35 17749112179907958790
12342043 65 17487905506492717134
12516196 113 18412824685680725722
12553582 1 18336557027260253475
12788726 201 18189051988816747418
13009979 54 18130802165449396761
13533116 47 18198064888437283419
13540713 4 18264189453123034917
13540713 5 18269856327399471289
13631057 29 18337390444584909482
14790565 3 17402895523049711233
14866123 147 18267589005726355145
15042514 8 18267021644134632170
15352361 1 18410573985378713715
15927050 60 17693377050806394684
17138139 8 17676764370250433410
17492 89 18122625230876633651
17686467 74 18410288104740971122
1813 80 18272941509185544142
18222031 100 18343021094774641062
20567600 70 18335979865302299650
20693207 138 18114455764791692871
21033648 29 17274523339817286539
21728266 224 18115861906914435858
2297311 6 18271251513054510110
23366157 5 18115313408988278501
23557571 272 18056768628635711156
23559900 14 18336819901113289609
249999 5 18125999614296619592
25147074 1 18339943561971556817
3004659 81 18113337517942039214
314173 85 18343587308697485443
329604 57 18408046212715484046
335352 9 18409727332220073797
3421961 26 18339922744090356801
4280585 95 18334568032015521304
5104073 3 18272089396195614865
5486654 36 18336561455819571577
59755656 215 18192993953020051716
621550 5 17774724156673544536
6371380 46 18335135363885331657
6669772 16 17837220633783402988
6823239 73 18338222830272961224
7970288 3 18410572877061549175
8863177 126 17897179128976139787
9709674 26 18045499974802933507

> <PUBCHEM_SHAPE_MULTIPOLES>
452.52
12.96
4.03
1.02
3.95
4.23
-0.01
-14.57
-0.95
-0.7
0.42
1.09
-0.11
0.32

> <PUBCHEM_SHAPE_SELFOVERLAP>
989.513

> <PUBCHEM_SHAPE_VOLUME>
244.2

> <PUBCHEM_COORDINATE_TYPE>
2
5
10

$$$$
