5328149
  -OEChem-10062122033D

 71 74  0     0  0  0  0  0  0999 V2000
   -3.7325    0.8686   -2.8072 Cl  0  0  0  0  0  0  0  0  0  0  0  0
   -4.1073    0.7990    2.6596 Cl  0  0  0  0  0  0  0  0  0  0  0  0
    0.2146   -2.1055    0.1736 O   0  0  0  0  0  0  0  0  0  0  0  0
    5.1940    0.3083   -0.2538 N   0  0  0  0  0  0  0  0  0  0  0  0
    5.0399   -2.5719   -0.0567 N   0  0  0  0  0  0  0  0  0  0  0  0
    2.9696    3.9145    0.4395 N   0  0  0  0  0  0  0  0  0  0  0  0
   -1.7058   -3.3835    0.0243 N   0  0  0  0  0  0  0  0  0  0  0  0
    1.3341    2.2676    0.3056 N   0  0  0  0  0  0  0  0  0  0  0  0
    0.7609    4.6066    0.2962 N   0  0  0  0  0  0  0  0  0  0  0  0
   -1.8989   -1.0869    0.0400 N   0  0  0  0  0  0  0  0  0  0  0  0
   -0.2906    0.6232    0.1728 N   0  0  0  0  0  0  0  0  0  0  0  0
    6.3291   -0.4841    0.2348 C   0  0  0  0  0  0  0  0  0  0  0  0
    4.3885   -0.4779   -1.1961 C   0  0  0  0  0  0  0  0  0  0  0  0
    5.8460   -1.7851    0.8849 C   0  0  0  0  0  0  0  0  0  0  0  0
    3.9056   -1.7797   -0.5472 C   0  0  0  0  0  0  0  0  0  0  0  0
    5.6555    1.5485   -0.8744 C   0  0  0  0  0  0  0  0  0  0  0  0
    4.5256    2.5797   -0.8997 C   0  0  0  0  0  0  0  0  0  0  0  0
    4.5773   -3.8109    0.5655 C   0  0  0  0  0  0  0  0  0  0  0  0
    4.0321    2.9392    0.5002 C   0  0  0  0  0  0  0  0  0  0  0  0
   -1.0520   -4.6716    0.0533 C   0  0  0  0  0  0  0  0  0  0  0  0
    1.6271    3.5846    0.3428 C   0  0  0  0  0  0  0  0  0  0  0  0
   -0.2677   -4.8124    1.3630 C   0  0  0  0  0  0  0  0  0  0  0  0
   -2.1091   -5.7784   -0.0339 C   0  0  0  0  0  0  0  0  0  0  0  0
   -0.0943   -4.7740   -1.1384 C   0  0  0  0  0  0  0  0  0  0  0  0
    0.0457    1.9197    0.2127 C   0  0  0  0  0  0  0  0  0  0  0  0
   -0.9453    2.9068    0.1573 C   0  0  0  0  0  0  0  0  0  0  0  0
   -2.6326    1.1942    0.0193 C   0  0  0  0  0  0  0  0  0  0  0  0
   -1.5989    0.2838    0.0784 C   0  0  0  0  0  0  0  0  0  0  0  0
   -1.0092   -2.1724    0.0878 C   0  0  0  0  0  0  0  0  0  0  0  0
   -2.2944    2.5354    0.0598 C   0  0  0  0  0  0  0  0  0  0  0  0
   -0.5265    4.2344    0.2030 C   0  0  0  0  0  0  0  0  0  0  0  0
   -4.0233    0.8050   -0.0813 C   0  0  0  0  0  0  0  0  0  0  0  0
   -4.6109    0.6328   -1.3346 C   0  0  0  0  0  0  0  0  0  0  0  0
   -4.7759    0.6022    1.0755 C   0  0  0  0  0  0  0  0  0  0  0  0
   -5.9509    0.2578   -1.4311 C   0  0  0  0  0  0  0  0  0  0  0  0
   -6.1160    0.2273    0.9789 C   0  0  0  0  0  0  0  0  0  0  0  0
   -6.7035    0.0550   -0.2744 C   0  0  0  0  0  0  0  0  0  0  0  0
    6.8851    0.0868    0.9885 H   0  0  0  0  0  0  0  0  0  0  0  0
    7.0260   -0.7139   -0.5826 H   0  0  0  0  0  0  0  0  0  0  0  0
    3.4988    0.0787   -1.5093 H   0  0  0  0  0  0  0  0  0  0  0  0
    4.9620   -0.7129   -2.1031 H   0  0  0  0  0  0  0  0  0  0  0  0
    6.7253   -2.3636    1.1933 H   0  0  0  0  0  0  0  0  0  0  0  0
    5.2724   -1.5531    1.7927 H   0  0  0  0  0  0  0  0  0  0  0  0
    3.3489   -2.3543   -1.2976 H   0  0  0  0  0  0  0  0  0  0  0  0
    3.2080   -1.5474    0.2692 H   0  0  0  0  0  0  0  0  0  0  0  0
    6.4797    1.9819   -0.2925 H   0  0  0  0  0  0  0  0  0  0  0  0
    6.0441    1.3801   -1.8867 H   0  0  0  0  0  0  0  0  0  0  0  0
    3.6922    2.2385   -1.5240 H   0  0  0  0  0  0  0  0  0  0  0  0
    4.9007    3.4895   -1.3869 H   0  0  0  0  0  0  0  0  0  0  0  0
    5.4286   -4.4200    0.8891 H   0  0  0  0  0  0  0  0  0  0  0  0
    4.0138   -4.4151   -0.1543 H   0  0  0  0  0  0  0  0  0  0  0  0
    3.9360   -3.6246    1.4345 H   0  0  0  0  0  0  0  0  0  0  0  0
    3.7234    2.0562    1.0711 H   0  0  0  0  0  0  0  0  0  0  0  0
    4.8637    3.3825    1.0614 H   0  0  0  0  0  0  0  0  0  0  0  0
    3.2065    4.8997    0.4455 H   0  0  0  0  0  0  0  0  0  0  0  0
    0.5763   -4.1204    1.4377 H   0  0  0  0  0  0  0  0  0  0  0  0
   -0.9142   -4.6359    2.2307 H   0  0  0  0  0  0  0  0  0  0  0  0
    0.1466   -5.8230    1.4598 H   0  0  0  0  0  0  0  0  0  0  0  0
   -2.8147   -5.7180    0.8030 H   0  0  0  0  0  0  0  0  0  0  0  0
   -2.6933   -5.6948   -0.9578 H   0  0  0  0  0  0  0  0  0  0  0  0
   -1.6501   -6.7729   -0.0155 H   0  0  0  0  0  0  0  0  0  0  0  0
    0.3296   -5.7828   -1.2085 H   0  0  0  0  0  0  0  0  0  0  0  0
   -0.6142   -4.5686   -2.0816 H   0  0  0  0  0  0  0  0  0  0  0  0
    0.7524   -4.0841   -1.0743 H   0  0  0  0  0  0  0  0  0  0  0  0
   -2.7186   -3.3511   -0.0452 H   0  0  0  0  0  0  0  0  0  0  0  0
   -3.0657    3.3022    0.0168 H   0  0  0  0  0  0  0  0  0  0  0  0
   -2.8801   -1.3392   -0.0310 H   0  0  0  0  0  0  0  0  0  0  0  0
   -1.2361    5.0554    0.1647 H   0  0  0  0  0  0  0  0  0  0  0  0
   -6.4249    0.1191   -2.3995 H   0  0  0  0  0  0  0  0  0  0  0  0
   -6.7173    0.0649    1.8698 H   0  0  0  0  0  0  0  0  0  0  0  0
   -7.7469   -0.2370   -0.3496 H   0  0  0  0  0  0  0  0  0  0  0  0
  1 33  1  0  0  0  0
  2 34  1  0  0  0  0
  3 29  2  0  0  0  0
  4 12  1  0  0  0  0
  4 13  1  0  0  0  0
  4 16  1  0  0  0  0
  5 14  1  0  0  0  0
  5 15  1  0  0  0  0
  5 18  1  0  0  0  0
  6 19  1  0  0  0  0
  6 21  1  0  0  0  0
  6 55  1  0  0  0  0
  7 20  1  0  0  0  0
  7 29  1  0  0  0  0
  7 65  1  0  0  0  0
  8 21  2  0  0  0  0
  8 25  1  0  0  0  0
  9 21  1  0  0  0  0
  9 31  2  0  0  0  0
 10 28  1  0  0  0  0
 10 29  1  0  0  0  0
 10 67  1  0  0  0  0
 11 25  2  0  0  0  0
 11 28  1  0  0  0  0
 12 14  1  0  0  0  0
 12 38  1  0  0  0  0
 12 39  1  0  0  0  0
 13 15  1  0  0  0  0
 13 40  1  0  0  0  0
 13 41  1  0  0  0  0
 14 42  1  0  0  0  0
 14 43  1  0  0  0  0
 15 44  1  0  0  0  0
 15 45  1  0  0  0  0
 16 17  1  0  0  0  0
 16 46  1  0  0  0  0
 16 47  1  0  0  0  0
 17 19  1  0  0  0  0
 17 48  1  0  0  0  0
 17 49  1  0  0  0  0
 18 50  1  0  0  0  0
 18 51  1  0  0  0  0
 18 52  1  0  0  0  0
 19 53  1  0  0  0  0
 19 54  1  0  0  0  0
 20 22  1  0  0  0  0
 20 23  1  0  0  0  0
 20 24  1  0  0  0  0
 22 56  1  0  0  0  0
 22 57  1  0  0  0  0
 22 58  1  0  0  0  0
 23 59  1  0  0  0  0
 23 60  1  0  0  0  0
 23 61  1  0  0  0  0
 24 62  1  0  0  0  0
 24 63  1  0  0  0  0
 24 64  1  0  0  0  0
 25 26  1  0  0  0  0
 26 30  2  0  0  0  0
 26 31  1  0  0  0  0
 27 28  2  0  0  0  0
 27 30  1  0  0  0  0
 27 32  1  0  0  0  0
 30 66  1  0  0  0  0
 31 68  1  0  0  0  0
 32 33  2  0  0  0  0
 32 34  1  0  0  0  0
 33 35  1  0  0  0  0
 34 36  2  0  0  0  0
 35 37  2  0  0  0  0
 35 69  1  0  0  0  0
 36 37  1  0  0  0  0
 36 70  1  0  0  0  0
 37 71  1  0  0  0  0
M  END
> <PUBCHEM_COMPOUND_CID>
5328149

> <PUBCHEM_CONFORMER_RMSD>
1.2

> <PUBCHEM_CONFORMER_DIVERSEORDER>
1
60
32
38
69
48
43
58
36
35
9
61
39
53
64
18
45
19
44
49
8
67
54
55
41
13
31
51
66
46
3
29
57
63
22
50
16
62
33
28
68
52
30
59
20
12
23
65
17
37
25
6
34
11
56
7
5
24
15
14
2
40
4
21
26
47
42
10
27

> <PUBCHEM_MMFF94_PARTIAL_CHARGES>
38
1 -0.18
10 -0.55
11 -0.62
12 0.27
13 0.27
14 0.27
15 0.27
16 0.27
18 0.27
19 0.37
2 -0.18
20 0.3
21 0.72
25 0.62
28 0.43
29 0.69
3 -0.57
30 -0.15
31 0.16
33 0.18
34 0.18
35 -0.15
36 -0.15
37 -0.15
4 -0.81
5 -0.81
55 0.4
6 -0.87
65 0.37
66 0.15
67 0.37
68 0.15
69 0.15
7 -0.73
70 0.15
71 0.15
8 -0.62
9 -0.62

> <PUBCHEM_EFFECTIVE_ROTOR_COUNT>
11.2

> <PUBCHEM_PHARMACOPHORE_FEATURES>
13
1 10 donor
1 3 acceptor
1 4 cation
1 5 cation
1 6 donor
1 7 donor
1 9 acceptor
4 20 22 23 24 hydrophobe
4 6 8 9 21 cation
6 11 25 26 27 28 30 rings
6 32 33 34 35 36 37 rings
6 4 5 12 13 14 15 rings
6 8 9 21 25 26 31 rings

> <PUBCHEM_HEAVY_ATOM_COUNT>
37

> <PUBCHEM_ATOM_DEF_STEREO_COUNT>
0

> <PUBCHEM_ATOM_UDEF_STEREO_COUNT>
0

> <PUBCHEM_BOND_DEF_STEREO_COUNT>
0

> <PUBCHEM_BOND_UDEF_STEREO_COUNT>
0

> <PUBCHEM_ISOTOPIC_ATOM_COUNT>
0

> <PUBCHEM_COMPONENT_COUNT>
1

> <PUBCHEM_CACTVS_TAUTO_COUNT>
24

> <PUBCHEM_CONFORMER_ID>
00514D1500000001

> <PUBCHEM_MMFF94_ENERGY>
105.7609

> <PUBCHEM_FEATURE_SELFOVERLAP>
66.059

> <PUBCHEM_SHAPE_FINGERPRINT>
10254770 206 18263907883788815674
1100329 8 18410855494488212082
11991303 11 18042404814936601727
12440605 4 18051700145961395099
1361 2 18411982425582838298
13911987 19 18335413518298662391
14040222 275 18127715746327244422
14725015 67 18268422448092983424
14784336 7 17916862551539294889
14790565 3 18339933610368645929
15320467 1 18410857625509564986
15483637 11 18122063379838429382
15927050 60 18267304429092309299
16112460 7 18343308067235319497
16628084 112 18336824178383869004
19301676 85 18411418414878535758
19319366 153 17894344463181697266
19958102 18 18192699262692040397
20764821 26 18338513153393977782
20775438 99 17910920807481281342
23559900 14 18197776815821892752
3178227 256 18337968830914166827
3383291 50 18410571769386579482
3729539 64 18408318878487690037
4073 2 18053663869771635064
4394409 98 17972852810297880428
463206 1 18339927125368825516
6201320 77 17244182299390408161
6371009 1 18193546784294046830
6669772 16 18337946904446977588
9961470 85 18270388529349295776

> <PUBCHEM_SHAPE_MULTIPOLES>
719.46
14.56
7.71
1.48
5.83
7.99
0.21
-0.72
1.13
3.87
-0.95
-2.04
-0.07
-0.46

> <PUBCHEM_SHAPE_SELFOVERLAP>
1511.904

> <PUBCHEM_SHAPE_VOLUME>
408.6

> <PUBCHEM_COORDINATE_TYPE>
2
5
10

$$$$
