135934877
  -OEChem-10052115143D

 40 42  0     0  0  0  0  0  0999 V2000
   -4.6810    3.1504    0.2249 O   0  0  0  0  0  0  0  0  0  0  0  0
    0.8354   -3.8656   -0.0145 O   0  0  0  0  0  0  0  0  0  0  0  0
    4.7933    1.7104    1.6361 O   0  0  0  0  0  0  0  0  0  0  0  0
   -2.4208   -2.8755    0.2141 N   0  0  0  0  0  0  0  0  0  0  0  0
   -1.5013   -3.8750    0.2206 N   0  0  0  0  0  0  0  0  0  0  0  0
    0.5425   -0.9323   -0.1748 N   0  0  0  0  0  0  0  0  0  0  0  0
    1.6854   -1.4357   -0.2610 N   0  0  0  0  0  0  0  0  0  0  0  0
   -1.7868   -1.6635    0.1063 C   0  0  0  0  0  0  0  0  0  0  0  0
   -2.5440   -0.4068    0.1368 C   0  0  0  0  0  0  0  0  0  0  0  0
   -0.4588   -1.8307   -0.0189 C   0  0  0  0  0  0  0  0  0  0  0  0
   -3.3141   -0.0835    1.2540 C   0  0  0  0  0  0  0  0  0  0  0  0
   -2.4925    0.4650   -0.9509 C   0  0  0  0  0  0  0  0  0  0  0  0
   -0.2466   -3.3087    0.0559 C   0  0  0  0  0  0  0  0  0  0  0  0
   -4.0325    1.1118    1.2835 C   0  0  0  0  0  0  0  0  0  0  0  0
   -3.2108    1.6601   -0.9214 C   0  0  0  0  0  0  0  0  0  0  0  0
   -3.9807    1.9836    0.1960 C   0  0  0  0  0  0  0  0  0  0  0  0
    2.6485   -0.4240   -0.4197 C   0  0  0  0  0  0  0  0  0  0  0  0
    3.2502    0.1488    0.7007 C   0  0  0  0  0  0  0  0  0  0  0  0
    4.2074    1.1510    0.5424 C   0  0  0  0  0  0  0  0  0  0  0  0
    3.0037    0.0054   -1.6985 C   0  0  0  0  0  0  0  0  0  0  0  0
    4.5625    1.5806   -0.7363 C   0  0  0  0  0  0  0  0  0  0  0  0
    3.9607    1.0077   -1.8568 C   0  0  0  0  0  0  0  0  0  0  0  0
   -4.5823    3.9952   -0.9208 C   0  0  0  0  0  0  0  0  0  0  0  0
    5.7626    2.7312    1.4024 C   0  0  0  0  0  0  0  0  0  0  0  0
   -3.3583   -2.9946    0.5705 H   0  0  0  0  0  0  0  0  0  0  0  0
   -3.3633   -0.7497    2.1119 H   0  0  0  0  0  0  0  0  0  0  0  0
   -1.9003    0.2271   -1.8315 H   0  0  0  0  0  0  0  0  0  0  0  0
   -1.7767   -4.8442    0.3058 H   0  0  0  0  0  0  0  0  0  0  0  0
   -4.6299    1.3589    2.1568 H   0  0  0  0  0  0  0  0  0  0  0  0
   -3.1266    2.2905   -1.8000 H   0  0  0  0  0  0  0  0  0  0  0  0
    2.9763   -0.1842    1.6990 H   0  0  0  0  0  0  0  0  0  0  0  0
    2.5410   -0.4356   -2.5776 H   0  0  0  0  0  0  0  0  0  0  0  0
    5.2975    2.3541   -0.9313 H   0  0  0  0  0  0  0  0  0  0  0  0
    4.2367    1.3412   -2.8529 H   0  0  0  0  0  0  0  0  0  0  0  0
   -4.9894    3.5103   -1.8146 H   0  0  0  0  0  0  0  0  0  0  0  0
   -3.5573    4.3507   -1.0716 H   0  0  0  0  0  0  0  0  0  0  0  0
   -5.2010    4.8774   -0.7261 H   0  0  0  0  0  0  0  0  0  0  0  0
    6.1248    3.0631    2.3809 H   0  0  0  0  0  0  0  0  0  0  0  0
    5.3176    3.6043    0.9132 H   0  0  0  0  0  0  0  0  0  0  0  0
    6.6292    2.3453    0.8549 H   0  0  0  0  0  0  0  0  0  0  0  0
  1 16  1  0  0  0  0
  1 23  1  0  0  0  0
  2 13  2  0  0  0  0
  3 19  1  0  0  0  0
  3 24  1  0  0  0  0
  4  5  1  0  0  0  0
  4  8  1  0  0  0  0
  4 25  1  0  0  0  0
  5 13  1  0  0  0  0
  5 28  1  0  0  0  0
  6  7  2  0  0  0  0
  6 10  1  0  0  0  0
  7 17  1  0  0  0  0
  8  9  1  0  0  0  0
  8 10  2  0  0  0  0
  9 11  2  0  0  0  0
  9 12  1  0  0  0  0
 10 13  1  0  0  0  0
 11 14  1  0  0  0  0
 11 26  1  0  0  0  0
 12 15  2  0  0  0  0
 12 27  1  0  0  0  0
 14 16  2  0  0  0  0
 14 29  1  0  0  0  0
 15 16  1  0  0  0  0
 15 30  1  0  0  0  0
 17 18  2  0  0  0  0
 17 20  1  0  0  0  0
 18 19  1  0  0  0  0
 18 31  1  0  0  0  0
 19 21  2  0  0  0  0
 20 22  2  0  0  0  0
 20 32  1  0  0  0  0
 21 22  1  0  0  0  0
 21 33  1  0  0  0  0
 22 34  1  0  0  0  0
 23 35  1  0  0  0  0
 23 36  1  0  0  0  0
 23 37  1  0  0  0  0
 24 38  1  0  0  0  0
 24 39  1  0  0  0  0
 24 40  1  0  0  0  0
M  END
> <PUBCHEM_COMPOUND_CID>
135934877

> <PUBCHEM_CONFORMER_RMSD>
0.8

> <PUBCHEM_CONFORMER_DIVERSEORDER>
1
11
18
23
27
2
25
5
14
4
6
3
12
19
17
15
26
21
8
10
24
9
16
22
13
7
20

> <PUBCHEM_MMFF94_PARTIAL_CHARGES>
34
1 -0.36
10 0.19
11 -0.15
12 -0.15
13 0.62
14 -0.15
15 -0.15
16 0.08
17 0.18
18 -0.15
19 0.08
2 -0.57
20 -0.15
21 -0.15
22 -0.15
23 0.28
24 0.28
25 0.4
26 0.15
27 0.15
28 0.37
29 0.15
3 -0.36
30 0.15
31 0.15
32 0.15
33 0.15
34 0.15
4 -0.52
5 -0.41
6 -0.17
7 -0.18
8 0.07
9 0.03

> <PUBCHEM_EFFECTIVE_ROTOR_COUNT>
5

> <PUBCHEM_PHARMACOPHORE_FEATURES>
8
1 1 acceptor
1 2 acceptor
1 3 acceptor
1 4 donor
1 5 donor
5 4 5 8 10 13 rings
6 17 18 19 20 21 22 rings
6 9 11 12 14 15 16 rings

> <PUBCHEM_HEAVY_ATOM_COUNT>
24

> <PUBCHEM_ATOM_DEF_STEREO_COUNT>
0

> <PUBCHEM_ATOM_UDEF_STEREO_COUNT>
0

> <PUBCHEM_BOND_DEF_STEREO_COUNT>
0

> <PUBCHEM_BOND_UDEF_STEREO_COUNT>
0

> <PUBCHEM_ISOTOPIC_ATOM_COUNT>
0

> <PUBCHEM_COMPONENT_COUNT>
1

> <PUBCHEM_CACTVS_TAUTO_COUNT>
-1

> <PUBCHEM_CONFORMER_ID>
081A339D00000001

> <PUBCHEM_MMFF94_ENERGY>
96.5958

> <PUBCHEM_FEATURE_SELFOVERLAP>
42.202

> <PUBCHEM_SHAPE_FINGERPRINT>
102385 1 16176790030730205559
10498660 4 18272655627430313656
10670039 82 18190478219144566582
10928967 22 11963387427813615320
10937287 8 18338797814946330223
11049842 53 18261407671725294558
11059845 2 18265028337703111168
11720765 8 17556872321620301358
12107183 9 18263063463179687098
12173636 292 18410295847528451383
12422481 6 17604142602303784100
12788726 201 17827367892474256050
12925494 130 17975420114426470433
13878862 14 17683512945568606957
13965767 371 18042114389136905932
14178342 30 18190743222932752478
14251764 38 18055064621884040208
14341114 328 16805616870724699089
14468879 13 18115602447955779081
14848178 96 18268714913490103849
14932701 244 17914311701731700349
14950920 106 16153431679011960952
15342168 16 18263650559180659701
15961568 22 17187564387211655056
16988056 13 17400351248646805021
1768 210 18270945900262005853
21033648 29 18410300194072323268
21033650 10 18117295850829321428
21401589 2 18271809046663618937
22122407 14 17624432874509912129
22956985 138 15523193066065453554
23557571 272 18055372459416752670
23559900 14 17832143819267072923
283562 15 18267295611947099867
3246875 12 18411136931823028073
341906 21 18338795745030705784
376196 1 18342174423429186582
469060 322 18047492280982096091
497634 4 15337444611972636287
508706 21 18270115863144721928
5252454 2 18339378386834146795
5895379 119 18191033498487194916
7064713 232 18333452040735816276
7808743 9 18263658410191193708
9849439 229 18337949000517949937
9981440 41 18335419054406102963

> <PUBCHEM_SHAPE_MULTIPOLES>
456.38
11.67
4.8
1.39
7.41
2.01
0.08
-15
-2.08
-4.29
-0.08
1.3
-0.89
1.81

> <PUBCHEM_SHAPE_SELFOVERLAP>
994.679

> <PUBCHEM_SHAPE_VOLUME>
250

> <PUBCHEM_COORDINATE_TYPE>
2
5
10

$$$$
