23652669
  -OEChem-10052115193D

 58 61  0     0  0  0  0  0  0999 V2000
   -4.3020   -1.0423   -1.2640 S   0  0  0  0  0  0  0  0  0  0  0  0
    7.4964   -3.1435   -0.2267 O   0  0  0  0  0  0  0  0  0  0  0  0
    3.8729    0.3833   -0.1142 N   0  0  0  0  0  0  0  0  0  0  0  0
    6.3198   -1.1563    0.0303 N   0  0  0  0  0  0  0  0  0  0  0  0
   -0.9163    3.3450   -0.2416 N   0  0  0  0  0  0  0  0  0  0  0  0
   -2.5299    1.6519   -0.0502 N   0  0  0  0  0  0  0  0  0  0  0  0
   -3.1791    3.9652   -0.2356 N   0  0  0  0  0  0  0  0  0  0  0  0
   -4.5014   -2.2099    1.0337 N   0  0  0  0  0  0  0  0  0  0  0  0
   -4.7891   -3.6225   -0.8403 N   0  0  0  0  0  0  0  0  0  0  0  0
    3.8454   -1.0795   -0.0273 C   0  0  0  0  0  0  0  0  0  0  0  0
    5.1759    1.0465   -0.2076 C   0  0  0  0  0  0  0  0  0  0  0  0
    5.1197   -1.6793   -0.6175 C   0  0  0  0  0  0  0  0  0  0  0  0
    6.2534    0.2281    0.5041 C   0  0  0  0  0  0  0  0  0  0  0  0
    2.6885    1.1157   -0.1457 C   0  0  0  0  0  0  0  0  0  0  0  0
    7.4387   -1.9778    0.1717 C   0  0  0  0  0  0  0  0  0  0  0  0
    1.5285    0.6705    0.5313 C   0  0  0  0  0  0  0  0  0  0  0  0
    2.5953    2.3360   -0.8559 C   0  0  0  0  0  0  0  0  0  0  0  0
    8.6354   -1.3627    0.8549 C   0  0  0  0  0  0  0  0  0  0  0  0
    0.3425    1.4040    0.4999 C   0  0  0  0  0  0  0  0  0  0  0  0
    1.4093    3.0694   -0.8875 C   0  0  0  0  0  0  0  0  0  0  0  0
    0.2829    2.6035   -0.2095 C   0  0  0  0  0  0  0  0  0  0  0  0
   -2.2721    2.9696   -0.1726 C   0  0  0  0  0  0  0  0  0  0  0  0
   -3.8381    1.3285    0.0135 C   0  0  0  0  0  0  0  0  0  0  0  0
   -4.1049   -0.0793    0.1434 C   0  0  0  0  0  0  0  0  0  0  0  0
   -4.2447   -0.8725    1.2653 C   0  0  0  0  0  0  0  0  0  0  0  0
   -4.8603    2.2540   -0.0399 C   0  0  0  0  0  0  0  0  0  0  0  0
   -4.5529   -2.4139   -0.2639 C   0  0  0  0  0  0  0  0  0  0  0  0
   -4.4675    3.5707   -0.1662 C   0  0  0  0  0  0  0  0  0  0  0  0
   -4.1444   -0.4223    2.6697 C   0  0  0  0  0  0  0  0  0  0  0  0
   -5.0180   -4.8601   -0.1035 C   0  0  0  0  0  0  0  0  0  0  0  0
   -5.2839   -6.0200   -1.0480 C   0  0  0  0  0  0  0  0  0  0  0  0
    2.9894   -1.4860   -0.5797 H   0  0  0  0  0  0  0  0  0  0  0  0
    3.7459   -1.3772    1.0237 H   0  0  0  0  0  0  0  0  0  0  0  0
    5.1453    2.0399    0.2561 H   0  0  0  0  0  0  0  0  0  0  0  0
    5.4403    1.1744   -1.2644 H   0  0  0  0  0  0  0  0  0  0  0  0
    5.0932   -2.7712   -0.5365 H   0  0  0  0  0  0  0  0  0  0  0  0
    5.2013   -1.4328   -1.6833 H   0  0  0  0  0  0  0  0  0  0  0  0
    6.0439    0.1816    1.5798 H   0  0  0  0  0  0  0  0  0  0  0  0
    7.2242    0.7156    0.3767 H   0  0  0  0  0  0  0  0  0  0  0  0
    1.5463   -0.2496    1.1113 H   0  0  0  0  0  0  0  0  0  0  0  0
    3.4499    2.7225   -1.4068 H   0  0  0  0  0  0  0  0  0  0  0  0
    8.3493   -0.9203    1.8126 H   0  0  0  0  0  0  0  0  0  0  0  0
    9.0865   -0.6068    0.2069 H   0  0  0  0  0  0  0  0  0  0  0  0
    9.3804   -2.1401    1.0509 H   0  0  0  0  0  0  0  0  0  0  0  0
   -0.4945    1.0275    1.0785 H   0  0  0  0  0  0  0  0  0  0  0  0
    1.3745    4.0008   -1.4470 H   0  0  0  0  0  0  0  0  0  0  0  0
   -0.7948    4.3276   -0.4677 H   0  0  0  0  0  0  0  0  0  0  0  0
   -5.9068    1.9806    0.0133 H   0  0  0  0  0  0  0  0  0  0  0  0
   -5.2000    4.3693   -0.2161 H   0  0  0  0  0  0  0  0  0  0  0  0
   -4.8091   -3.6875   -1.8548 H   0  0  0  0  0  0  0  0  0  0  0  0
   -4.9233    0.3129    2.8958 H   0  0  0  0  0  0  0  0  0  0  0  0
   -4.2627   -1.2609    3.3634 H   0  0  0  0  0  0  0  0  0  0  0  0
   -3.1683    0.0353    2.8605 H   0  0  0  0  0  0  0  0  0  0  0  0
   -5.8768   -4.7360    0.5660 H   0  0  0  0  0  0  0  0  0  0  0  0
   -4.1405   -5.0880    0.5121 H   0  0  0  0  0  0  0  0  0  0  0  0
   -5.4546   -6.9416   -0.4834 H   0  0  0  0  0  0  0  0  0  0  0  0
   -4.4340   -6.1805   -1.7197 H   0  0  0  0  0  0  0  0  0  0  0  0
   -6.1670   -5.8267   -1.6661 H   0  0  0  0  0  0  0  0  0  0  0  0
  1 24  1  0  0  0  0
  1 27  1  0  0  0  0
  2 15  2  0  0  0  0
  3 10  1  0  0  0  0
  3 11  1  0  0  0  0
  3 14  1  0  0  0  0
  4 12  1  0  0  0  0
  4 13  1  0  0  0  0
  4 15  1  0  0  0  0
  5 21  1  0  0  0  0
  5 22  1  0  0  0  0
  5 47  1  0  0  0  0
  6 22  1  0  0  0  0
  6 23  2  0  0  0  0
  7 22  2  0  0  0  0
  7 28  1  0  0  0  0
  8 25  1  0  0  0  0
  8 27  2  0  0  0  0
  9 27  1  0  0  0  0
  9 30  1  0  0  0  0
  9 50  1  0  0  0  0
 10 12  1  0  0  0  0
 10 32  1  0  0  0  0
 10 33  1  0  0  0  0
 11 13  1  0  0  0  0
 11 34  1  0  0  0  0
 11 35  1  0  0  0  0
 12 36  1  0  0  0  0
 12 37  1  0  0  0  0
 13 38  1  0  0  0  0
 13 39  1  0  0  0  0
 14 16  2  0  0  0  0
 14 17  1  0  0  0  0
 15 18  1  0  0  0  0
 16 19  1  0  0  0  0
 16 40  1  0  0  0  0
 17 20  2  0  0  0  0
 17 41  1  0  0  0  0
 18 42  1  0  0  0  0
 18 43  1  0  0  0  0
 18 44  1  0  0  0  0
 19 21  2  0  0  0  0
 19 45  1  0  0  0  0
 20 21  1  0  0  0  0
 20 46  1  0  0  0  0
 23 24  1  0  0  0  0
 23 26  1  0  0  0  0
 24 25  2  0  0  0  0
 25 29  1  0  0  0  0
 26 28  2  0  0  0  0
 26 48  1  0  0  0  0
 28 49  1  0  0  0  0
 29 51  1  0  0  0  0
 29 52  1  0  0  0  0
 29 53  1  0  0  0  0
 30 31  1  0  0  0  0
 30 54  1  0  0  0  0
 30 55  1  0  0  0  0
 31 56  1  0  0  0  0
 31 57  1  0  0  0  0
 31 58  1  0  0  0  0
M  END
> <PUBCHEM_COMPOUND_CID>
23652669

> <PUBCHEM_CONFORMER_RMSD>
1

> <PUBCHEM_CONFORMER_DIVERSEORDER>
1
26
41
30
4
21
39
44
9
8
50
38
43
20
45
47
46
42
17
40
54
49
51
29
25
24
11
53
14
37
6
13
23
52
28
48
31
19
35
10
22
3
15
32
33
18
34
27
12
5
36
2
16
7

> <PUBCHEM_MMFF94_PARTIAL_CHARGES>
38
1 -0.08
10 0.37
11 0.37
12 0.3
13 0.3
14 0.1
15 0.57
16 -0.15
17 -0.15
18 0.06
19 -0.15
2 -0.57
20 -0.15
21 0.1
22 0.72
23 0.36
24 -0.01
25 0.05
26 -0.15
27 0.46
28 0.16
29 0.18
3 -0.84
30 0.37
4 -0.66
40 0.15
41 0.15
45 0.15
46 0.15
47 0.4
48 0.15
49 0.15
5 -0.6
50 0.4
6 -0.62
7 -0.62
8 -0.57
9 -0.85

> <PUBCHEM_EFFECTIVE_ROTOR_COUNT>
8.2

> <PUBCHEM_PHARMACOPHORE_FEATURES>
11
1 2 acceptor
1 3 cation
1 5 donor
1 6 acceptor
1 9 donor
3 8 9 27 cation
4 5 6 7 22 cation
5 1 8 24 25 27 rings
6 14 16 17 19 20 21 rings
6 3 4 10 11 12 13 rings
6 6 7 22 23 26 28 rings

> <PUBCHEM_HEAVY_ATOM_COUNT>
31

> <PUBCHEM_ATOM_DEF_STEREO_COUNT>
0

> <PUBCHEM_ATOM_UDEF_STEREO_COUNT>
0

> <PUBCHEM_BOND_DEF_STEREO_COUNT>
0

> <PUBCHEM_BOND_UDEF_STEREO_COUNT>
0

> <PUBCHEM_ISOTOPIC_ATOM_COUNT>
0

> <PUBCHEM_COMPONENT_COUNT>
1

> <PUBCHEM_CACTVS_TAUTO_COUNT>
9

> <PUBCHEM_CONFORMER_ID>
0168E93D00000001

> <PUBCHEM_MMFF94_ENERGY>
93.8144

> <PUBCHEM_FEATURE_SELFOVERLAP>
55.822

> <PUBCHEM_SHAPE_FINGERPRINT>
10391435 84 18337943511971498528
10622 236 18335977674757923007
10940486 97 18260834748077375997
11135609 99 18336270038173249820
11607047 403 17622996207638053128
117089 54 18265054823986501919
11761917 116 18339366396082288990
11801155 225 18192425269523518402
11828042 38 16897912359627192431
12643181 29 18263360304626423805
12645989 146 18338521961729129219
1361 4 18338800121644520150
13782708 43 18342737404290800448
13911852 28 18050849124826334415
14279260 333 17750238023864273322
14344974 204 18413388757127663518
14429380 30 18265053715947755811
14844126 61 18336270063837747017
14950920 106 17346603023051268537
15183329 4 16588026793001281058
15399243 27 18193573378241686895
15467298 65 18115579328305983578
15538507 19 18338794624044943138
15684393 108 17314253174626825254
15803439 3 17464219809774401293
17492 89 18338233902841470741
18393751 57 16977003503740685553
18608769 82 18337950083629962640
19303781 99 18040719199007344178
19315092 285 17485659470160652737
20775438 99 16826697000380525539
208703 8 18338789143139055367
21133410 171 17541326545542997243
21133665 82 18120091676512151277
23523787 8 17538238953899275429
23559900 14 18410005533467457976
249057 3 18115591435554974845
3146121 3 18337107991004657540
3383291 50 18340489964027526609
397830 11 18272639170096902168
404807 14 18121220038073778699
4073 2 18336267834712770944
437795 96 18199194992463540231
44062 13 18409172086805433181
44426695 248 15840980204625324182
4616759 239 17915446213116803328
4625314 4 18264772057284347396
484985 159 18409160009799904775
531348 171 18410577258206889283
56633871 153 18268162010366962963
6058803 2 18191607413266185437
6431902 208 18408323306445633910
6441014 3 18268145542909234879
6636798 310 17418089966517888491
70251023 43 17760647363107443305
7970288 3 18051693549455941943

> <PUBCHEM_SHAPE_MULTIPOLES>
601.08
20.95
6.65
1.18
38.61
6.38
-0.6
23.24
-1.79
-12.94
2.29
-1.48
0.42
-1.54

> <PUBCHEM_SHAPE_SELFOVERLAP>
1266.555

> <PUBCHEM_SHAPE_VOLUME>
341.2

> <PUBCHEM_COORDINATE_TYPE>
2
5
10

$$$$
