11987888
  -OEChem-10052115143D

 56 58  0     0  0  0  0  0  0999 V2000
   -5.3392   -0.4607   -0.6780 O   0  0  0  0  0  0  0  0  0  0  0  0
   -5.3813   -1.3082    1.4948 O   0  0  0  0  0  0  0  0  0  0  0  0
    1.2812    6.0045   -0.6292 O   0  0  0  0  0  0  0  0  0  0  0  0
    2.2095   -1.7950   -0.8145 O   0  0  0  0  0  0  0  0  0  0  0  0
    8.3760   -2.2925    0.3916 O   0  5  0  0  0  0  0  0  0  0  0  0
    6.6531   -3.6518    0.3386 O   0  0  0  0  0  0  0  0  0  0  0  0
   -0.2559    1.4822    0.3923 N   0  0  0  0  0  0  0  0  0  0  0  0
   -0.4190   -0.5665   -0.4541 N   0  0  0  0  0  0  0  0  0  0  0  0
    1.7827    0.3581    0.0422 N   0  0  0  0  0  0  0  0  0  0  0  0
    7.1430   -2.4980    0.2825 N   0  3  0  0  0  0  0  0  0  0  0  0
   -1.5801    1.1664    0.1914 C   0  0  0  0  0  0  0  0  0  0  0  0
    0.2545    2.7225    0.9269 C   0  0  0  0  0  0  0  0  0  0  0  0
   -7.2740   -1.7014   -0.0056 C   0  0  0  0  0  0  0  0  0  0  0  0
   -1.7084   -0.1142   -0.3392 C   0  0  0  0  0  0  0  0  0  0  0  0
    0.4116    0.4221   -0.0050 C   0  0  0  0  0  0  0  0  0  0  0  0
    0.5426    3.7805   -0.1376 C   0  0  0  0  0  0  0  0  0  0  0  0
   -2.7370    1.9245    0.4385 C   0  0  0  0  0  0  0  0  0  0  0  0
   -2.9386   -0.6976   -0.6445 C   0  0  0  0  0  0  0  0  0  0  0  0
   -4.0797    0.0711   -0.3921 C   0  0  0  0  0  0  0  0  0  0  0  0
   -5.8986   -1.1542    0.3945 C   0  0  0  0  0  0  0  0  0  0  0  0
   -7.1194   -2.6516   -1.2004 C   0  0  0  0  0  0  0  0  0  0  0  0
   -7.9007   -2.4356    1.1871 C   0  0  0  0  0  0  0  0  0  0  0  0
   -8.1895   -0.5347   -0.4103 C   0  0  0  0  0  0  0  0  0  0  0  0
   -3.9830    1.3591    0.1397 C   0  0  0  0  0  0  0  0  0  0  0  0
    1.0235    5.1052    0.4415 C   0  0  0  0  0  0  0  0  0  0  0  0
    2.5841   -0.7214   -0.3558 C   0  0  0  0  0  0  0  0  0  0  0  0
    4.0494   -0.5052   -0.2236 C   0  0  0  0  0  0  0  0  0  0  0  0
    4.9009   -1.5936   -0.0341 C   0  0  0  0  0  0  0  0  0  0  0  0
    4.5722    0.7863   -0.2886 C   0  0  0  0  0  0  0  0  0  0  0  0
    6.2753   -1.3906    0.0901 C   0  0  0  0  0  0  0  0  0  0  0  0
    5.9466    0.9895   -0.1643 C   0  0  0  0  0  0  0  0  0  0  0  0
    6.7980   -0.0989    0.0250 C   0  0  0  0  0  0  0  0  0  0  0  0
    1.1521    2.5097    1.5175 H   0  0  0  0  0  0  0  0  0  0  0  0
   -0.4820    3.1039    1.6438 H   0  0  0  0  0  0  0  0  0  0  0  0
   -0.3554    3.9601   -0.7432 H   0  0  0  0  0  0  0  0  0  0  0  0
    1.2921    3.4031   -0.8456 H   0  0  0  0  0  0  0  0  0  0  0  0
   -2.6814    2.9284    0.8473 H   0  0  0  0  0  0  0  0  0  0  0  0
   -3.0091   -1.6976   -1.0577 H   0  0  0  0  0  0  0  0  0  0  0  0
   -8.0802   -3.1009   -1.4756 H   0  0  0  0  0  0  0  0  0  0  0  0
   -6.7289   -2.1364   -2.0852 H   0  0  0  0  0  0  0  0  0  0  0  0
   -6.4228   -3.4644   -0.9648 H   0  0  0  0  0  0  0  0  0  0  0  0
   -8.8897   -2.8335    0.9339 H   0  0  0  0  0  0  0  0  0  0  0  0
   -8.0182   -1.7687    2.0491 H   0  0  0  0  0  0  0  0  0  0  0  0
   -7.2750   -3.2770    1.5066 H   0  0  0  0  0  0  0  0  0  0  0  0
   -9.2007   -0.8865   -0.6435 H   0  0  0  0  0  0  0  0  0  0  0  0
   -8.2660    0.2019    0.3979 H   0  0  0  0  0  0  0  0  0  0  0  0
   -7.8115   -0.0073   -1.2935 H   0  0  0  0  0  0  0  0  0  0  0  0
   -4.8846    1.9380    0.3257 H   0  0  0  0  0  0  0  0  0  0  0  0
    0.2618    5.5449    1.0931 H   0  0  0  0  0  0  0  0  0  0  0  0
    1.9473    4.9676    1.0121 H   0  0  0  0  0  0  0  0  0  0  0  0
    2.2405    1.1743    0.4324 H   0  0  0  0  0  0  0  0  0  0  0  0
    1.5859    6.8387   -0.2333 H   0  0  0  0  0  0  0  0  0  0  0  0
    4.4775   -2.5939    0.0208 H   0  0  0  0  0  0  0  0  0  0  0  0
    3.9534    1.6594   -0.4722 H   0  0  0  0  0  0  0  0  0  0  0  0
    6.3547    1.9943   -0.2235 H   0  0  0  0  0  0  0  0  0  0  0  0
    7.8634    0.0972    0.1158 H   0  0  0  0  0  0  0  0  0  0  0  0
  1 19  1  0  0  0  0
  1 20  1  0  0  0  0
  2 20  2  0  0  0  0
  3 25  1  0  0  0  0
  3 52  1  0  0  0  0
  4 26  2  0  0  0  0
  5 10  1  0  0  0  0
  6 10  2  0  0  0  0
  7 11  1  0  0  0  0
  7 12  1  0  0  0  0
  7 15  1  0  0  0  0
  8 14  1  0  0  0  0
  8 15  2  0  0  0  0
  9 15  1  0  0  0  0
  9 26  1  0  0  0  0
  9 51  1  0  0  0  0
 10 30  1  0  0  0  0
 11 14  2  0  0  0  0
 11 17  1  0  0  0  0
 12 16  1  0  0  0  0
 12 33  1  0  0  0  0
 12 34  1  0  0  0  0
 13 20  1  0  0  0  0
 13 21  1  0  0  0  0
 13 22  1  0  0  0  0
 13 23  1  0  0  0  0
 14 18  1  0  0  0  0
 16 25  1  0  0  0  0
 16 35  1  0  0  0  0
 16 36  1  0  0  0  0
 17 24  2  0  0  0  0
 17 37  1  0  0  0  0
 18 19  2  0  0  0  0
 18 38  1  0  0  0  0
 19 24  1  0  0  0  0
 21 39  1  0  0  0  0
 21 40  1  0  0  0  0
 21 41  1  0  0  0  0
 22 42  1  0  0  0  0
 22 43  1  0  0  0  0
 22 44  1  0  0  0  0
 23 45  1  0  0  0  0
 23 46  1  0  0  0  0
 23 47  1  0  0  0  0
 24 48  1  0  0  0  0
 25 49  1  0  0  0  0
 25 50  1  0  0  0  0
 26 27  1  0  0  0  0
 27 28  2  0  0  0  0
 27 29  1  0  0  0  0
 28 30  1  0  0  0  0
 28 53  1  0  0  0  0
 29 31  2  0  0  0  0
 29 54  1  0  0  0  0
 30 32  2  0  0  0  0
 31 32  1  0  0  0  0
 31 55  1  0  0  0  0
 32 56  1  0  0  0  0
M  CHG  2   5  -1  10   1
M  END
> <PUBCHEM_COMPOUND_CID>
11987888

> <PUBCHEM_CONFORMER_RMSD>
1

> <PUBCHEM_CONFORMER_DIVERSEORDER>
4
78
62
59
83
45
96
20
93
53
46
54
100
31
27
42
79
72
74
91
40
81
101
56
34
103
70
77
39
64
69
30
80
38
52
104
33
65
63
12
97
21
84
61
19
48
36
94
10
24
98
29
75
86
11
26
87
66
88
82
58
22
55
41
47
50
85
44
102
51
73
32
76
68
28
57
67
37
23
89
71
60
43
99
95
25
17
14
49
6
16
90
18
8
92
35
15
3
9
13
5
2
1
7

> <PUBCHEM_MMFF94_PARTIAL_CHARGES>
37
1 -0.23
10 0.91
11 -0.15
12 0.26
13 0.06
14 0.23
15 0.25
17 -0.15
18 -0.15
19 0.08
2 -0.57
20 0.66
24 -0.15
25 0.28
26 0.54
27 0.09
28 -0.15
29 -0.15
3 -0.68
30 0.13
31 -0.15
32 -0.15
37 0.15
38 0.15
4 -0.57
48 0.15
5 -0.52
51 0.37
52 0.4
53 0.15
54 0.15
55 0.15
56 0.15
6 -0.52
7 0.05
8 -0.57
9 -0.49

> <PUBCHEM_EFFECTIVE_ROTOR_COUNT>
10

> <PUBCHEM_PHARMACOPHORE_FEATURES>
12
1 2 acceptor
1 3 acceptor
1 3 donor
1 4 acceptor
1 5 acceptor
1 5 anion
1 6 acceptor
1 9 donor
4 13 21 22 23 hydrophobe
5 7 8 11 14 15 rings
6 11 14 17 18 19 24 rings
6 27 28 29 30 31 32 rings

> <PUBCHEM_HEAVY_ATOM_COUNT>
32

> <PUBCHEM_ATOM_DEF_STEREO_COUNT>
0

> <PUBCHEM_ATOM_UDEF_STEREO_COUNT>
0

> <PUBCHEM_BOND_DEF_STEREO_COUNT>
0

> <PUBCHEM_BOND_UDEF_STEREO_COUNT>
0

> <PUBCHEM_ISOTOPIC_ATOM_COUNT>
0

> <PUBCHEM_COMPONENT_COUNT>
1

> <PUBCHEM_CACTVS_TAUTO_COUNT>
3

> <PUBCHEM_CONFORMER_ID>
00B6EBB000000004

> <PUBCHEM_MMFF94_ENERGY>
92.0311

> <PUBCHEM_FEATURE_SELFOVERLAP>
61.086

> <PUBCHEM_SHAPE_FINGERPRINT>
10411042 1 18411136930952966601
11445158 3 18341610481749751677
12166972 35 18040721359681855948
12516196 113 18412826893082549004
12522641 126 18118123812385443685
13248334 5 18122905592866315336
13673619 4 18187364346448759909
13782708 43 17968089863465716571
14068700 675 18202847669033002105
14347332 77 18265893554590878228
14394314 77 18337956662781544529
15183329 4 11602537619660498791
15439362 3 18049721016373436892
15927050 60 17622445369375971772
17492 89 18123751959585401518
17686467 74 18342729703572960744
19315092 285 17460014220478408946
19611394 137 18262528094984468651
19841028 212 17822567196911018578
20691028 202 8934700194422635570
21049683 271 18335707203541042900
21130935 74 18199185084649117210
21267235 1 18342742914148382382
21583282 1 17899141791068940013
21792934 111 18201428164771505641
21792961 116 18335411319117144759
22149856 69 17346333556534240954
22311459 1 18341333374833894815
23522609 53 18054541168492240057
23559900 14 18336542841515940217
24771750 20 17901392508714870636
25019877 29 17060337422743890748
3178227 256 18341904034490950187
3383291 50 18408884044433941563
439807 62 18411138030432523739
44880568 143 16877939417036619812
5219985 9 18343864415787330200
6057620 51 18334020476369555582
999808 66 18260555554450719379

> <PUBCHEM_SHAPE_MULTIPOLES>
603.41
23.81
4.98
0.88
6.15
8.35
-0.08
-28.97
-1.6
-4.9
-0.14
1.09
-0.18
-0.53

> <PUBCHEM_SHAPE_SELFOVERLAP>
1292.373

> <PUBCHEM_SHAPE_VOLUME>
334.3

> <PUBCHEM_COORDINATE_TYPE>
2
5
10

$$$$
