401171
  -OEChem-10062122013D

 26 28  0     0  0  0  0  0  0999 V2000
    5.4198    1.3430    0.1759 Br  0  0  0  0  0  0  0  0  0  0  0  0
    1.4861   -2.2672   -0.3870 N   0  0  0  0  0  0  0  0  0  0  0  0
   -1.8591    0.7936   -0.3352 N   0  0  0  0  0  0  0  0  0  0  0  0
   -4.1716    0.4134    0.2261 N   0  0  0  0  0  0  0  0  0  0  0  0
   -3.4571    2.4911   -0.5970 N   0  0  0  0  0  0  0  0  0  0  0  0
    0.9685   -0.1369    0.0264 C   0  0  0  0  0  0  0  0  0  0  0  0
   -0.2312   -0.8946   -0.0812 C   0  0  0  0  0  0  0  0  0  0  0  0
    2.0311   -1.0218   -0.1695 C   0  0  0  0  0  0  0  0  0  0  0  0
    0.1197   -2.2004   -0.3356 C   0  0  0  0  0  0  0  0  0  0  0  0
   -1.5990   -0.4767    0.0369 C   0  0  0  0  0  0  0  0  0  0  0  0
    1.2534    1.2210    0.2725 C   0  0  0  0  0  0  0  0  0  0  0  0
    3.3695   -0.6150   -0.1314 C   0  0  0  0  0  0  0  0  0  0  0  0
    2.5875    1.6422    0.3132 C   0  0  0  0  0  0  0  0  0  0  0  0
    3.6277    0.7366    0.1142 C   0  0  0  0  0  0  0  0  0  0  0  0
   -2.5580   -1.3502    0.5073 C   0  0  0  0  0  0  0  0  0  0  0  0
   -3.8401   -0.8454    0.5809 C   0  0  0  0  0  0  0  0  0  0  0  0
   -3.1474    1.1675   -0.2165 C   0  0  0  0  0  0  0  0  0  0  0  0
   -0.4646   -3.0967   -0.4958 H   0  0  0  0  0  0  0  0  0  0  0  0
    2.0187   -3.1082   -0.5616 H   0  0  0  0  0  0  0  0  0  0  0  0
    0.4610    1.9454    0.4360 H   0  0  0  0  0  0  0  0  0  0  0  0
    4.1702   -1.3311   -0.2883 H   0  0  0  0  0  0  0  0  0  0  0  0
    2.7955    2.6925    0.5051 H   0  0  0  0  0  0  0  0  0  0  0  0
   -2.3541   -2.3662    0.8211 H   0  0  0  0  0  0  0  0  0  0  0  0
   -4.6607   -1.4563    0.9417 H   0  0  0  0  0  0  0  0  0  0  0  0
   -2.7214    3.0960   -0.9351 H   0  0  0  0  0  0  0  0  0  0  0  0
   -4.4105    2.8187   -0.5257 H   0  0  0  0  0  0  0  0  0  0  0  0
  1 14  1  0  0  0  0
  2  8  1  0  0  0  0
  2  9  1  0  0  0  0
  2 19  1  0  0  0  0
  3 10  2  0  0  0  0
  3 17  1  0  0  0  0
  4 16  1  0  0  0  0
  4 17  2  0  0  0  0
  5 17  1  0  0  0  0
  5 25  1  0  0  0  0
  5 26  1  0  0  0  0
  6  7  1  0  0  0  0
  6  8  2  0  0  0  0
  6 11  1  0  0  0  0
  7  9  2  0  0  0  0
  7 10  1  0  0  0  0
  8 12  1  0  0  0  0
  9 18  1  0  0  0  0
 10 15  1  0  0  0  0
 11 13  2  0  0  0  0
 11 20  1  0  0  0  0
 12 14  2  0  0  0  0
 12 21  1  0  0  0  0
 13 14  1  0  0  0  0
 13 22  1  0  0  0  0
 15 16  2  0  0  0  0
 15 23  1  0  0  0  0
 16 24  1  0  0  0  0
M  END
> <PUBCHEM_COMPOUND_CID>
401171

> <PUBCHEM_CONFORMER_RMSD>
0.6

> <PUBCHEM_CONFORMER_DIVERSEORDER>
2
4
6
3
5
1

> <PUBCHEM_MMFF94_PARTIAL_CHARGES>
25
1 -0.11
10 0.36
11 -0.15
12 -0.15
13 -0.15
14 0.11
15 -0.15
16 0.16
17 0.72
18 0.15
19 0.27
2 0.03
20 0.15
21 0.15
22 0.15
23 0.15
24 0.15
25 0.4
26 0.4
3 -0.62
4 -0.62
5 -0.9
7 -0.05
8 -0.15
9 -0.3

> <PUBCHEM_EFFECTIVE_ROTOR_COUNT>
1

> <PUBCHEM_PHARMACOPHORE_FEATURES>
9
1 1 hydrophobe
1 2 cation
1 2 donor
1 3 acceptor
1 5 donor
4 3 4 5 17 cation
5 2 6 7 8 9 rings
6 3 4 10 15 16 17 rings
6 6 8 11 12 13 14 rings

> <PUBCHEM_HEAVY_ATOM_COUNT>
17

> <PUBCHEM_ATOM_DEF_STEREO_COUNT>
0

> <PUBCHEM_ATOM_UDEF_STEREO_COUNT>
0

> <PUBCHEM_BOND_DEF_STEREO_COUNT>
0

> <PUBCHEM_BOND_UDEF_STEREO_COUNT>
0

> <PUBCHEM_ISOTOPIC_ATOM_COUNT>
0

> <PUBCHEM_COMPONENT_COUNT>
1

> <PUBCHEM_CACTVS_TAUTO_COUNT>
6

> <PUBCHEM_CONFORMER_ID>
00061F1300000002

> <PUBCHEM_MMFF94_ENERGY>
41.4339

> <PUBCHEM_FEATURE_SELFOVERLAP>
45.762

> <PUBCHEM_SHAPE_FINGERPRINT>
10608611 8 18337390444347194709
10646746 165 18335422339755130636
10967382 1 18412263913117143122
11471102 20 18342738503127311478
11543360 7 14189288309498628392
12390115 104 18270135564091266816
12403259 415 18200872984719975312
12507560 40 18408325466703459503
12654215 9 18341892931641306614
13140716 1 18192715544459657819
13214271 11 18335983159731937695
14026960 21 18264495159687459841
14415576 193 18410015420581250300
15196674 1 18411138017747912880
15219456 202 18410014303926767343
15442244 35 18052540962991949043
16945 1 18338510958096393110
18186145 218 18131361807929586498
19784866 9 18335133177425237978
200 152 17989200465344269743
20510252 161 18410859841654304049
20645477 56 18199751517467002832
20645477 70 17775293716355066926
21279426 13 18269278972267319700
21524375 3 18270683189622377462
22854114 59 18412830213261132531
23402539 116 18130783516511272092
23402655 69 18202279178244681909
23559900 14 18123185697837700554
25 1 18342174458031056734
2748010 2 18411422795248571207
2916195 48 17987792051094773808
293599 30 18341334487472757496
350125 39 18196937896658993248
3524813 1 18341607161281127433
5104073 3 18335704897000245203
6430166 295 18411134775332571000
7364860 26 18269839722417393494
81228 2 17262700583336396522
9709674 26 18410299086229217239

> <PUBCHEM_SHAPE_MULTIPOLES>
335.87
8.92
2.27
0.7
3.14
0.03
-0.02
-4.4
-0.77
-0.54
0.33
-0.1
-0.01
0.79

> <PUBCHEM_SHAPE_SELFOVERLAP>
737.023

> <PUBCHEM_SHAPE_VOLUME>
185.9

> <PUBCHEM_COORDINATE_TYPE>
2
5
10

$$$$
