135431661
  -OEChem-10062122003D

 57 60  0     0  0  0  0  0  0999 V2000
    6.5311    0.8956   -2.0415 O   0  0  0  0  0  0  0  0  0  0  0  0
   10.5107    0.2514    0.4912 O   0  0  0  0  0  0  0  0  0  0  0  0
   -8.6713    0.5277    0.5860 N   0  0  0  0  0  0  0  0  0  0  0  0
   -2.6068   -1.3970   -0.0182 N   0  0  0  0  0  0  0  0  0  0  0  0
   -0.0695    0.9607   -0.3178 N   0  0  0  0  0  0  0  0  0  0  0  0
   -1.3868    0.6962   -0.3455 N   0  0  0  0  0  0  0  0  0  0  0  0
  -10.0894    0.8394    0.4124 C   0  0  0  0  0  0  0  0  0  0  0  0
   -8.1429   -0.1415   -0.5925 C   0  0  0  0  0  0  0  0  0  0  0  0
   -6.6820   -0.4726   -0.4415 C   0  0  0  0  0  0  0  0  0  0  0  0
  -10.7412    1.0179    1.7798 C   0  0  0  0  0  0  0  0  0  0  0  0
  -10.2546    2.0934   -0.4415 C   0  0  0  0  0  0  0  0  0  0  0  0
   -3.9753   -1.0865   -0.1607 C   0  0  0  0  0  0  0  0  0  0  0  0
    2.1438   -0.0701    0.0107 C   0  0  0  0  0  0  0  0  0  0  0  0
    0.7067   -0.1312   -0.0617 C   0  0  0  0  0  0  0  0  0  0  0  0
   -6.2886   -1.7825   -0.1677 C   0  0  0  0  0  0  0  0  0  0  0  0
   -5.7218    0.5305   -0.5746 C   0  0  0  0  0  0  0  0  0  0  0  0
    4.9275    0.0472    0.1504 C   0  0  0  0  0  0  0  0  0  0  0  0
   -1.4381   -0.6150   -0.0964 C   0  0  0  0  0  0  0  0  0  0  0  0
   -4.9353   -2.0895   -0.0274 C   0  0  0  0  0  0  0  0  0  0  0  0
   -4.3685    0.2237   -0.4342 C   0  0  0  0  0  0  0  0  0  0  0  0
   -0.1634   -1.1832    0.0891 C   0  0  0  0  0  0  0  0  0  0  0  0
    2.7719    1.0993    0.4392 C   0  0  0  0  0  0  0  0  0  0  0  0
    2.9074   -1.1809   -0.3480 C   0  0  0  0  0  0  0  0  0  0  0  0
    6.3711    0.1064    0.2235 C   0  0  0  0  0  0  0  0  0  0  0  0
    4.1637    1.1579    0.5089 C   0  0  0  0  0  0  0  0  0  0  0  0
    4.2993   -1.1222   -0.2783 C   0  0  0  0  0  0  0  0  0  0  0  0
    7.1264    0.5272   -0.8711 C   0  0  0  0  0  0  0  0  0  0  0  0
    7.0071   -0.2657    1.4079 C   0  0  0  0  0  0  0  0  0  0  0  0
    8.5174    0.5761   -0.7813 C   0  0  0  0  0  0  0  0  0  0  0  0
    8.3981   -0.2169    1.4978 C   0  0  0  0  0  0  0  0  0  0  0  0
    9.1533    0.2041    0.4031 C   0  0  0  0  0  0  0  0  0  0  0  0
  -10.6097    0.0051   -0.0760 H   0  0  0  0  0  0  0  0  0  0  0  0
   -8.2466    0.4798   -1.4900 H   0  0  0  0  0  0  0  0  0  0  0  0
   -8.7027   -1.0646   -0.7928 H   0  0  0  0  0  0  0  0  0  0  0  0
   -8.5568   -0.0911    1.3894 H   0  0  0  0  0  0  0  0  0  0  0  0
  -11.8076    1.2450    1.6737 H   0  0  0  0  0  0  0  0  0  0  0  0
  -10.6569    0.1054    2.3808 H   0  0  0  0  0  0  0  0  0  0  0  0
  -10.2789    1.8375    2.3416 H   0  0  0  0  0  0  0  0  0  0  0  0
  -11.3123    2.3708   -0.5133 H   0  0  0  0  0  0  0  0  0  0  0  0
   -9.8918    1.9483   -1.4635 H   0  0  0  0  0  0  0  0  0  0  0  0
   -9.7186    2.9458   -0.0086 H   0  0  0  0  0  0  0  0  0  0  0  0
   -7.0257   -2.5736   -0.0591 H   0  0  0  0  0  0  0  0  0  0  0  0
   -6.0172    1.5545   -0.7881 H   0  0  0  0  0  0  0  0  0  0  0  0
   -4.6440   -3.1147    0.1864 H   0  0  0  0  0  0  0  0  0  0  0  0
   -3.6777    1.0475   -0.5494 H   0  0  0  0  0  0  0  0  0  0  0  0
   -2.4694   -2.3874    0.1793 H   0  0  0  0  0  0  0  0  0  0  0  0
    0.0842   -2.2135    0.3050 H   0  0  0  0  0  0  0  0  0  0  0  0
    2.2050    1.9781    0.7363 H   0  0  0  0  0  0  0  0  0  0  0  0
    2.4435   -2.1022   -0.6915 H   0  0  0  0  0  0  0  0  0  0  0  0
    4.6378    2.0763    0.8473 H   0  0  0  0  0  0  0  0  0  0  0  0
    4.8799   -1.9966   -0.5630 H   0  0  0  0  0  0  0  0  0  0  0  0
    0.2241    1.9139   -0.4930 H   0  0  0  0  0  0  0  0  0  0  0  0
    6.4345   -0.5966    2.2713 H   0  0  0  0  0  0  0  0  0  0  0  0
    9.1081    0.9037   -1.6336 H   0  0  0  0  0  0  0  0  0  0  0  0
    8.8878   -0.5081    2.4230 H   0  0  0  0  0  0  0  0  0  0  0  0
    7.2165    1.1553   -2.6808 H   0  0  0  0  0  0  0  0  0  0  0  0
   10.8713    0.5645   -0.3562 H   0  0  0  0  0  0  0  0  0  0  0  0
  1 27  1  0  0  0  0
  1 56  1  0  0  0  0
  2 31  1  0  0  0  0
  2 57  1  0  0  0  0
  3  7  1  0  0  0  0
  3  8  1  0  0  0  0
  3 35  1  0  0  0  0
  4 12  1  0  0  0  0
  4 18  1  0  0  0  0
  4 46  1  0  0  0  0
  5  6  1  0  0  0  0
  5 14  1  0  0  0  0
  5 52  1  0  0  0  0
  6 18  2  0  0  0  0
  7 10  1  0  0  0  0
  7 11  1  0  0  0  0
  7 32  1  0  0  0  0
  8  9  1  0  0  0  0
  8 33  1  0  0  0  0
  8 34  1  0  0  0  0
  9 15  2  0  0  0  0
  9 16  1  0  0  0  0
 10 36  1  0  0  0  0
 10 37  1  0  0  0  0
 10 38  1  0  0  0  0
 11 39  1  0  0  0  0
 11 40  1  0  0  0  0
 11 41  1  0  0  0  0
 12 19  2  0  0  0  0
 12 20  1  0  0  0  0
 13 14  1  0  0  0  0
 13 22  2  0  0  0  0
 13 23  1  0  0  0  0
 14 21  2  0  0  0  0
 15 19  1  0  0  0  0
 15 42  1  0  0  0  0
 16 20  2  0  0  0  0
 16 43  1  0  0  0  0
 17 24  1  0  0  0  0
 17 25  2  0  0  0  0
 17 26  1  0  0  0  0
 18 21  1  0  0  0  0
 19 44  1  0  0  0  0
 20 45  1  0  0  0  0
 21 47  1  0  0  0  0
 22 25  1  0  0  0  0
 22 48  1  0  0  0  0
 23 26  2  0  0  0  0
 23 49  1  0  0  0  0
 24 27  2  0  0  0  0
 24 28  1  0  0  0  0
 25 50  1  0  0  0  0
 26 51  1  0  0  0  0
 27 29  1  0  0  0  0
 28 30  2  0  0  0  0
 28 53  1  0  0  0  0
 29 31  2  0  0  0  0
 29 54  1  0  0  0  0
 30 31  1  0  0  0  0
 30 55  1  0  0  0  0
M  END
> <PUBCHEM_COMPOUND_CID>
135431661

> <PUBCHEM_CONFORMER_RMSD>
1

> <PUBCHEM_CONFORMER_DIVERSEORDER>
1
16
29
23
15
14
19
12
18
8
30
17
27
11
25
2
28
24
13
31
26
20
22
6
9
5
3
32
7
4
10
21

> <PUBCHEM_MMFF94_PARTIAL_CHARGES>
44
1 -0.53
12 0.1
13 0.05
14 -0.2
15 -0.15
16 -0.15
18 0.37
19 -0.15
2 -0.53
20 -0.15
21 -0.15
22 -0.15
23 -0.15
25 -0.15
26 -0.15
27 0.08
28 -0.15
29 -0.15
3 -0.9
30 -0.15
31 0.08
35 0.36
4 -0.58
42 0.15
43 0.15
44 0.15
45 0.15
46 0.4
47 0.15
48 0.15
49 0.15
5 0.3
50 0.15
51 0.15
52 0.27
53 0.15
54 0.15
55 0.15
56 0.45
57 0.45
6 -0.71
7 0.27
8 0.41
9 -0.14

> <PUBCHEM_EFFECTIVE_ROTOR_COUNT>
7

> <PUBCHEM_PHARMACOPHORE_FEATURES>
12
1 1 donor
1 2 donor
1 3 cation
1 3 donor
1 4 donor
1 5 donor
3 4 6 18 cation
3 7 10 11 hydrophobe
5 5 6 14 18 21 rings
6 13 17 22 23 25 26 rings
6 24 27 28 29 30 31 rings
6 9 12 15 16 19 20 rings

> <PUBCHEM_HEAVY_ATOM_COUNT>
31

> <PUBCHEM_ATOM_DEF_STEREO_COUNT>
0

> <PUBCHEM_ATOM_UDEF_STEREO_COUNT>
0

> <PUBCHEM_BOND_DEF_STEREO_COUNT>
0

> <PUBCHEM_BOND_UDEF_STEREO_COUNT>
0

> <PUBCHEM_ISOTOPIC_ATOM_COUNT>
0

> <PUBCHEM_COMPONENT_COUNT>
1

> <PUBCHEM_CACTVS_TAUTO_COUNT>
-1

> <PUBCHEM_CONFORMER_ID>
081285ED00000001

> <PUBCHEM_MMFF94_ENERGY>
82.1509

> <PUBCHEM_FEATURE_SELFOVERLAP>
60.899

> <PUBCHEM_SHAPE_FINGERPRINT>
10 15 17967533467916978747
10299344 5 17821723953649890018
106641 1 14418136227535019671
10674148 151 18408882954044030409
11061554 47 17704070668849280017
11211813 128 11458420233020089457
11315181 36 16415763051099086355
11409948 35 17560244614235940646
11410812 94 13973693789856857291
11719270 70 18412260637033789462
12089408 11 18040996267342301663
12522641 33 16559034883000428574
12664476 115 18410569587701623781
14118638 360 17418099776286450714
14251764 46 18410854369217037615
14251920 17 8646477532765352138
14344974 52 16988835108654803355
15061470 23 17632573864659505976
15065858 18 16988841696032485262
15145343 6 18201720712131571408
15419008 47 17561075913170951464
15461852 350 17203324547009119351
15510794 2 17346882264434060055
155225 1 18272370846578810273
15849732 13 16415479376687325796
16087824 20 18341332211198476665
1754911 235 16200147695188261781
19315958 150 18333733490074948691
20105231 36 12901540222618168224
20771845 171 10591772039194473032
21095086 128 12973884806286230019
21362267 20 15502380050033598641
21362267 313 18059012770280400290
21792934 111 17703783744207553304
232437 2 7853574616927882849
23528940 14 16009040519246604409
249057 3 17703505592627946990
3092352 35 17603585244766917611
335352 9 18409443725900523094
3633792 109 17275110522187129479
44389302 135 18336253576044393330
4760202 170 16343693357077743273
5283156 175 17894909634070422990
67123 10 9079115565882569515
9663363 56 17490148617813798504

> <PUBCHEM_SHAPE_MULTIPOLES>
606.3
40.94
1.5
1.1
30.09
0.25
0.1
-14.75
6.9
3.1
-0.04
-0.79
-0.25
-0.9

> <PUBCHEM_SHAPE_SELFOVERLAP>
1322.067

> <PUBCHEM_SHAPE_VOLUME>
329.7

> <PUBCHEM_COORDINATE_TYPE>
2
5
10

$$$$
