14824655
  -OEChem-10062122003D

 32 34  0     1  0  0  0  0  0999 V2000
   -1.1095    1.6470    0.1339 O   0  0  0  0  0  0  0  0  0  0  0  0
   -2.2128    0.6324   -2.0362 O   0  0  0  0  0  0  0  0  0  0  0  0
   -4.1921   -1.1591   -0.9508 O   0  0  0  0  0  0  0  0  0  0  0  0
    0.4064    3.3876    0.0382 O   0  0  0  0  0  0  0  0  0  0  0  0
    3.1329    2.3144   -0.1469 O   0  0  0  0  0  0  0  0  0  0  0  0
    3.1250   -2.4645   -0.1879 O   0  0  0  0  0  0  0  0  0  0  0  0
   -1.0829    0.1937    0.1036 C   0  0  1  0  0  0  0  0  0  0  0  0
   -1.9061   -0.3479   -1.0753 C   0  0  1  0  0  0  0  0  0  0  0  0
    0.3687   -0.0968    0.0089 C   0  0  0  0  0  0  0  0  0  0  0  0
   -1.7988   -0.3251    1.3263 C   0  0  0  0  0  0  0  0  0  0  0  0
    1.0744    1.0909   -0.0264 C   0  0  0  0  0  0  0  0  0  0  0  0
   -3.1536   -0.8437   -0.3903 C   0  0  0  0  0  0  0  0  0  0  0  0
   -2.9726   -0.9131    1.0667 C   0  0  0  0  0  0  0  0  0  0  0  0
    0.1396    2.2026    0.0468 C   0  0  0  0  0  0  0  0  0  0  0  0
    1.0423   -1.3062   -0.0446 C   0  0  0  0  0  0  0  0  0  0  0  0
   -1.2485   -0.1262    2.6999 C   0  0  0  0  0  0  0  0  0  0  0  0
    2.4536    1.1414   -0.1144 C   0  0  0  0  0  0  0  0  0  0  0  0
    2.4376   -1.2891   -0.1333 C   0  0  0  0  0  0  0  0  0  0  0  0
    3.1387   -0.0725   -0.1680 C   0  0  0  0  0  0  0  0  0  0  0  0
    2.3576   -3.6659   -0.1501 C   0  0  0  0  0  0  0  0  0  0  0  0
   -1.4311   -1.2081   -1.5621 H   0  0  0  0  0  0  0  0  0  0  0  0
   -3.6831   -1.3271    1.7609 H   0  0  0  0  0  0  0  0  0  0  0  0
    0.4459   -2.2102   -0.0126 H   0  0  0  0  0  0  0  0  0  0  0  0
   -1.9367   -0.4975    3.4668 H   0  0  0  0  0  0  0  0  0  0  0  0
   -1.0774    0.9371    2.8950 H   0  0  0  0  0  0  0  0  0  0  0  0
   -0.3009   -0.6599    2.8199 H   0  0  0  0  0  0  0  0  0  0  0  0
   -2.7261    0.2027   -2.7414 H   0  0  0  0  0  0  0  0  0  0  0  0
    4.2240   -0.0791   -0.2373 H   0  0  0  0  0  0  0  0  0  0  0  0
    2.5027    3.0528   -0.1007 H   0  0  0  0  0  0  0  0  0  0  0  0
    1.6974   -3.7499   -1.0200 H   0  0  0  0  0  0  0  0  0  0  0  0
    1.8138   -3.7671    0.7953 H   0  0  0  0  0  0  0  0  0  0  0  0
    3.0629   -4.5017   -0.2033 H   0  0  0  0  0  0  0  0  0  0  0  0
  1  7  1  0  0  0  0
  1 14  1  0  0  0  0
  2  8  1  0  0  0  0
  2 27  1  0  0  0  0
  3 12  2  0  0  0  0
  4 14  2  0  0  0  0
  5 17  1  0  0  0  0
  5 29  1  0  0  0  0
  6 18  1  0  0  0  0
  6 20  1  0  0  0  0
  7  8  1  0  0  0  0
  7  9  1  0  0  0  0
  7 10  1  0  0  0  0
  8 12  1  0  0  0  0
  8 21  1  0  0  0  0
  9 11  2  0  0  0  0
  9 15  1  0  0  0  0
 10 13  2  0  0  0  0
 10 16  1  0  0  0  0
 11 14  1  0  0  0  0
 11 17  1  0  0  0  0
 12 13  1  0  0  0  0
 13 22  1  0  0  0  0
 15 18  2  0  0  0  0
 15 23  1  0  0  0  0
 16 24  1  0  0  0  0
 16 25  1  0  0  0  0
 16 26  1  0  0  0  0
 17 19  2  0  0  0  0
 18 19  1  0  0  0  0
 19 28  1  0  0  0  0
 20 30  1  0  0  0  0
 20 31  1  0  0  0  0
 20 32  1  0  0  0  0
M  END
> <PUBCHEM_COMPOUND_CID>
14824655

> <PUBCHEM_CONFORMER_RMSD>
0.6

> <PUBCHEM_CONFORMER_DIVERSEORDER>
2
1

> <PUBCHEM_MMFF94_PARTIAL_CHARGES>
25
1 -0.43
10 -0.28
11 0.09
12 0.49
13 -0.14
14 0.63
15 -0.15
16 0.14
17 0.08
18 0.08
19 -0.15
2 -0.68
20 0.28
22 0.15
23 0.15
27 0.4
28 0.15
29 0.45
3 -0.57
4 -0.57
5 -0.53
6 -0.36
7 0.56
8 0.34
9 -0.14

> <PUBCHEM_EFFECTIVE_ROTOR_COUNT>
1.4

> <PUBCHEM_PHARMACOPHORE_FEATURES>
9
1 2 acceptor
1 2 donor
1 3 acceptor
1 4 acceptor
1 5 donor
1 6 acceptor
5 1 7 9 11 14 rings
5 7 8 10 12 13 rings
6 9 11 15 17 18 19 rings

> <PUBCHEM_HEAVY_ATOM_COUNT>
20

> <PUBCHEM_ATOM_DEF_STEREO_COUNT>
0

> <PUBCHEM_ATOM_UDEF_STEREO_COUNT>
2

> <PUBCHEM_BOND_DEF_STEREO_COUNT>
0

> <PUBCHEM_BOND_UDEF_STEREO_COUNT>
0

> <PUBCHEM_ISOTOPIC_ATOM_COUNT>
0

> <PUBCHEM_COMPONENT_COUNT>
1

> <PUBCHEM_CACTVS_TAUTO_COUNT>
36

> <PUBCHEM_CONFORMER_ID>
00E234CF00000002

> <PUBCHEM_MMFF94_ENERGY>
53.2536

> <PUBCHEM_FEATURE_SELFOVERLAP>
45.78

> <PUBCHEM_SHAPE_FINGERPRINT>
10967382 1 18339080501072247798
11578080 2 17416093171544411345
11582403 64 16457068541120235933
12236239 1 17560250239988274833
12553582 1 18267037063247073098
13083527 12 18266156410489033946
13140716 1 18268155249191750696
13583140 156 17985292869870558923
13911987 19 18119256309731454516
14817 1 14812839203373226185
15207287 21 17896589781366895304
15309172 13 18122637312012371888
16945 1 18265908036318708801
18186145 218 17458339711265947671
18927931 339 17761223120358604830
19591789 44 17688884454727000198
200 152 18343579667976779759
20645477 70 18335412500096195615
21285901 2 17822280315007467999
21452121 199 18265592334937663450
21731516 1 18198074585814165126
22112679 90 17346327002529776145
23114952 82 18040435477678069188
2334 1 18410862044508458760
23419403 2 16675768864385447976
23526113 38 18113891676212924121
23559900 14 18265039246592923050
23598291 2 17916606283171112779
23728640 28 16969137038961432794
2748010 2 18409165485319126628
3084891 72 16609133812618743240
70251023 43 18265054634965470251
77492 1 17632026328842335275
81228 2 17975126548667766144

> <PUBCHEM_SHAPE_MULTIPOLES>
376.37
5.47
3.07
1.42
0.81
0.14
0.63
2.67
-0.99
-3.15
-0.23
1.56
0.1
0.06

> <PUBCHEM_SHAPE_SELFOVERLAP>
841.041

> <PUBCHEM_SHAPE_VOLUME>
203

> <PUBCHEM_COORDINATE_TYPE>
2
5
10

$$$$
