25167075
  -OEChem-10052115143D

 33 36  0     0  0  0  0  0  0999 V2000
   -1.1169   -3.1717   -0.1667 S   0  0  0  0  0  0  0  0  0  0  0  0
    5.2159    1.6448   -0.1152 N   0  0  0  0  0  0  0  0  0  0  0  0
   -0.7849   -0.6095   -0.0832 N   0  0  0  0  0  0  0  0  0  0  0  0
   -3.0342   -1.3348   -0.0133 N   0  0  0  0  0  0  0  0  0  0  0  0
    6.0871    0.8103    0.4759 N   0  0  0  0  0  0  0  0  0  0  0  0
    1.6640   -0.3974   -0.1814 C   0  0  0  0  0  0  0  0  0  0  0  0
    4.0058   -0.1298    0.3269 C   0  0  0  0  0  0  0  0  0  0  0  0
    3.9491    1.1407   -0.2353 C   0  0  0  0  0  0  0  0  0  0  0  0
    2.8454   -0.9209    0.3587 C   0  0  0  0  0  0  0  0  0  0  0  0
    0.4659   -1.1907   -0.1597 C   0  0  0  0  0  0  0  0  0  0  0  0
    1.6348    0.8818   -0.7400 C   0  0  0  0  0  0  0  0  0  0  0  0
    2.7818    1.6813   -0.7790 C   0  0  0  0  0  0  0  0  0  0  0  0
    5.3473   -0.2681    0.7436 C   0  0  0  0  0  0  0  0  0  0  0  0
   -1.6947   -1.5584   -0.0797 C   0  0  0  0  0  0  0  0  0  0  0  0
    0.4879   -2.5687   -0.2123 C   0  0  0  0  0  0  0  0  0  0  0  0
   -3.8519   -0.1483    0.0669 C   0  0  0  0  0  0  0  0  0  0  0  0
   -5.2412   -0.2610    0.1217 C   0  0  0  0  0  0  0  0  0  0  0  0
   -3.2531    1.1114    0.0888 C   0  0  0  0  0  0  0  0  0  0  0  0
   -6.0316    0.8857    0.1982 C   0  0  0  0  0  0  0  0  0  0  0  0
   -4.0436    2.2581    0.1653 C   0  0  0  0  0  0  0  0  0  0  0  0
   -5.4329    2.1452    0.2200 C   0  0  0  0  0  0  0  0  0  0  0  0
    2.8937   -1.9048    0.8151 H   0  0  0  0  0  0  0  0  0  0  0  0
    0.7173    1.2857   -1.1640 H   0  0  0  0  0  0  0  0  0  0  0  0
    2.7617    2.6745   -1.2135 H   0  0  0  0  0  0  0  0  0  0  0  0
    5.8153   -1.1116    1.2313 H   0  0  0  0  0  0  0  0  0  0  0  0
    5.5516    2.5512   -0.4163 H   0  0  0  0  0  0  0  0  0  0  0  0
    1.3238   -3.2504   -0.2871 H   0  0  0  0  0  0  0  0  0  0  0  0
   -3.6189   -2.1691   -0.0195 H   0  0  0  0  0  0  0  0  0  0  0  0
   -5.7211   -1.2361    0.1054 H   0  0  0  0  0  0  0  0  0  0  0  0
   -2.1804    1.2551    0.0483 H   0  0  0  0  0  0  0  0  0  0  0  0
   -7.1133    0.7980    0.2408 H   0  0  0  0  0  0  0  0  0  0  0  0
   -3.5781    3.2394    0.1822 H   0  0  0  0  0  0  0  0  0  0  0  0
   -6.0483    3.0381    0.2796 H   0  0  0  0  0  0  0  0  0  0  0  0
  1 14  1  0  0  0  0
  1 15  1  0  0  0  0
  2  5  1  0  0  0  0
  2  8  1  0  0  0  0
  2 26  1  0  0  0  0
  3 10  1  0  0  0  0
  3 14  2  0  0  0  0
  4 14  1  0  0  0  0
  4 16  1  0  0  0  0
  4 28  1  0  0  0  0
  5 13  2  0  0  0  0
  6  9  2  0  0  0  0
  6 10  1  0  0  0  0
  6 11  1  0  0  0  0
  7  8  2  0  0  0  0
  7  9  1  0  0  0  0
  7 13  1  0  0  0  0
  8 12  1  0  0  0  0
  9 22  1  0  0  0  0
 10 15  2  0  0  0  0
 11 12  2  0  0  0  0
 11 23  1  0  0  0  0
 12 24  1  0  0  0  0
 13 25  1  0  0  0  0
 15 27  1  0  0  0  0
 16 17  2  0  0  0  0
 16 18  1  0  0  0  0
 17 19  1  0  0  0  0
 17 29  1  0  0  0  0
 18 20  2  0  0  0  0
 18 30  1  0  0  0  0
 19 21  2  0  0  0  0
 19 31  1  0  0  0  0
 20 21  1  0  0  0  0
 20 32  1  0  0  0  0
 21 33  1  0  0  0  0
M  END
> <PUBCHEM_COMPOUND_CID>
25167075

> <PUBCHEM_CONFORMER_RMSD>
0.6

> <PUBCHEM_CONFORMER_DIVERSEORDER>
2
23
30
13
20
36
21
18
10
35
9
17
32
54
7
24
3
14
42
4
31
11
8
44
46
43
26
47
12
6
41
28
37
5
25
38
33
45
34
27
16
19
40
39
15
52
53
29
1
22
49
48
50
51

> <PUBCHEM_MMFF94_PARTIAL_CHARGES>
32
1 -0.08
10 0.17
11 -0.15
12 -0.15
13 0.14
14 0.46
15 -0.11
16 0.1
17 -0.15
18 -0.15
19 -0.15
2 0.3
20 -0.15
21 -0.15
22 0.15
23 0.15
24 0.15
25 0.15
26 0.27
27 0.15
28 0.4
29 0.15
3 -0.57
30 0.15
31 0.15
32 0.15
33 0.15
4 -0.58
5 -0.71
6 0.05
8 -0.15
9 -0.15

> <PUBCHEM_EFFECTIVE_ROTOR_COUNT>
3

> <PUBCHEM_PHARMACOPHORE_FEATURES>
8
1 2 donor
1 4 donor
1 5 acceptor
3 3 4 14 cation
5 1 3 10 14 15 rings
5 2 5 7 8 13 rings
6 16 17 18 19 20 21 rings
6 6 7 8 9 11 12 rings

> <PUBCHEM_HEAVY_ATOM_COUNT>
21

> <PUBCHEM_ATOM_DEF_STEREO_COUNT>
0

> <PUBCHEM_ATOM_UDEF_STEREO_COUNT>
0

> <PUBCHEM_BOND_DEF_STEREO_COUNT>
0

> <PUBCHEM_BOND_UDEF_STEREO_COUNT>
0

> <PUBCHEM_ISOTOPIC_ATOM_COUNT>
0

> <PUBCHEM_COMPONENT_COUNT>
1

> <PUBCHEM_CACTVS_TAUTO_COUNT>
4

> <PUBCHEM_CONFORMER_ID>
018004E300000002

> <PUBCHEM_MMFF94_ENERGY>
54.188

> <PUBCHEM_FEATURE_SELFOVERLAP>
40.688

> <PUBCHEM_SHAPE_FINGERPRINT>
10 15 18187652418247297889
10411042 1 17691404535584740991
10906281 52 17750239274511911332
11089746 13 18272080630510046340
11646440 116 17989215858217272729
12107183 9 18335692794437078122
12236239 1 18260545645280055242
12390115 104 18271259256695642491
12596602 18 17386007307803384049
12633257 1 15936700336421690739
12760667 363 8070028857355362571
12788726 201 17537461869260599363
12838862 33 18339343203069271573
12916748 109 18412270544768337183
13167372 99 18410291389552481208
13177829 73 18411697686261924088
13402501 40 18413106156457681121
13685833 64 9511451239544331061
13740256 8 8790880787647998091
13785724 45 17832982746539748986
14251764 18 18187361052287912832
14251764 75 17769384821041552305
14466204 15 18410571769006842648
14767858 380 18271509976113284047
14790565 3 18409451392570373860
14951699 99 18197487640448699936
15188451 53 15502952929993345481
15196674 1 18410857625229541901
15238133 3 17895203198842008604
15475509 8 18261689099525241780
18222031 100 10881689056701136203
20281389 69 18410009944477076296
20715895 44 18411982420945063985
21033648 29 18058999696679032826
21298829 104 18267585715850815853
21304253 335 18334297617207573092
21315764 268 18335696173874934101
21421861 104 17823121364536579298
21756936 100 18271517684493104399
22950370 63 9079113367091403043
23402539 116 18272645783417616055
23559900 14 18129666283785713990
245318 6 17751099095887567805
2838139 119 18343857823133895549
2916195 48 18131063861494865616
335352 9 18410575068364464070
46194498 28 13469820612579396139
474 4 18336266748006702707
5104073 3 18042113436002319952
5385378 56 18340775814726735491
59682541 35 18336836372919252667
59682541 52 16486702342003672836
59755656 215 18270971146253195590
59755656 520 18410568491999627975
6328613 192 18262244430006856172
636775 72 18127685144722508296
653340 110 18194117404574431188
7062679 6 18409452509261637028
7064713 232 18408887325957156277
7226269 152 18059858372078953368
77188 2 17186723819131052287
7808743 9 18412259562589780483
7970288 3 8646764482934036153
9981440 41 18335708230596941403

> <PUBCHEM_SHAPE_MULTIPOLES>
416.1
14.33
2.8
0.73
1.35
1.33
-0.02
-9.71
2.5
1.55
-0.23
-0.33
-0.06
-0.56

> <PUBCHEM_SHAPE_SELFOVERLAP>
920.543

> <PUBCHEM_SHAPE_VOLUME>
224.6

> <PUBCHEM_COORDINATE_TYPE>
2
5
10

$$$$
