136027060
  -OEChem-10062121533D

 32 33  0     0  0  0  0  0  0999 V2000
    6.4481    2.3133    0.0004 Br  0  0  0  0  0  0  0  0  0  0  0  0
    4.6486   -3.1408    0.0012 Br  0  0  0  0  0  0  0  0  0  0  0  0
    6.6434   -0.7748    0.0020 O   0  0  0  0  0  0  0  0  0  0  0  0
   -2.0211   -1.2608   -0.0024 O   0  0  0  0  0  0  0  0  0  0  0  0
   -3.1992    0.7703    0.0004 N   0  0  0  0  0  0  0  0  0  0  0  0
   -0.9080    0.7609   -0.0004 N   0  0  0  0  0  0  0  0  0  0  0  0
    0.3041    0.1609   -0.0016 N   0  0  0  0  0  0  0  0  0  0  0  0
    2.6974    0.5267   -0.0011 C   0  0  0  0  0  0  0  0  0  0  0  0
   -4.5512    0.3561    0.0004 C   0  0  0  0  0  0  0  0  0  0  0  0
    2.9813   -0.8390   -0.0007 C   0  0  0  0  0  0  0  0  0  0  0  0
    3.7381    1.4554   -0.0005 C   0  0  0  0  0  0  0  0  0  0  0  0
    5.3466   -0.3474    0.0005 C   0  0  0  0  0  0  0  0  0  0  0  0
    5.0628    1.0183    0.0002 C   0  0  0  0  0  0  0  0  0  0  0  0
    4.3059   -1.2760    0.0002 C   0  0  0  0  0  0  0  0  0  0  0  0
   -5.5722    1.3065    0.0014 C   0  0  0  0  0  0  0  0  0  0  0  0
   -4.8639   -1.0033   -0.0003 C   0  0  0  0  0  0  0  0  0  0  0  0
    1.3164    0.9825   -0.0010 C   0  0  0  0  0  0  0  0  0  0  0  0
   -6.9057    0.8976    0.0016 C   0  0  0  0  0  0  0  0  0  0  0  0
   -6.1975   -1.4122   -0.0002 C   0  0  0  0  0  0  0  0  0  0  0  0
   -7.2184   -0.4618    0.0007 C   0  0  0  0  0  0  0  0  0  0  0  0
   -2.0557   -0.0322   -0.0008 C   0  0  0  0  0  0  0  0  0  0  0  0
    2.1773   -1.5715   -0.0008 H   0  0  0  0  0  0  0  0  0  0  0  0
    3.5137    2.5199   -0.0007 H   0  0  0  0  0  0  0  0  0  0  0  0
   -5.3423    2.3689    0.0020 H   0  0  0  0  0  0  0  0  0  0  0  0
   -4.1305   -1.7972   -0.0008 H   0  0  0  0  0  0  0  0  0  0  0  0
   -3.0484    1.7761    0.0012 H   0  0  0  0  0  0  0  0  0  0  0  0
    1.1551    2.0768   -0.0001 H   0  0  0  0  0  0  0  0  0  0  0  0
   -7.7008    1.6375    0.0024 H   0  0  0  0  0  0  0  0  0  0  0  0
   -6.4424   -2.4705   -0.0008 H   0  0  0  0  0  0  0  0  0  0  0  0
   -8.2567   -0.7802    0.0007 H   0  0  0  0  0  0  0  0  0  0  0  0
   -0.9486    1.7748    0.0009 H   0  0  0  0  0  0  0  0  0  0  0  0
    6.6472   -1.7476    0.0022 H   0  0  0  0  0  0  0  0  0  0  0  0
  1 13  1  0  0  0  0
  2 14  1  0  0  0  0
  3 12  1  0  0  0  0
  3 32  1  0  0  0  0
  4 21  2  0  0  0  0
  5  9  1  0  0  0  0
  5 21  1  0  0  0  0
  5 26  1  0  0  0  0
  6  7  1  0  0  0  0
  6 21  1  0  0  0  0
  6 31  1  0  0  0  0
  7 17  2  3  0  0  0
  8 10  2  0  0  0  0
  8 11  1  0  0  0  0
  8 17  1  0  0  0  0
  9 15  2  0  0  0  0
  9 16  1  0  0  0  0
 10 14  1  0  0  0  0
 10 22  1  0  0  0  0
 11 13  2  0  0  0  0
 11 23  1  0  0  0  0
 12 13  1  0  0  0  0
 12 14  2  0  0  0  0
 15 18  1  0  0  0  0
 15 24  1  0  0  0  0
 16 19  2  0  0  0  0
 16 25  1  0  0  0  0
 17 27  1  0  0  0  0
 18 20  2  0  0  0  0
 18 28  1  0  0  0  0
 19 20  1  0  0  0  0
 19 29  1  0  0  0  0
 20 30  1  0  0  0  0
M  END
> <PUBCHEM_COMPOUND_CID>
136027060

> <PUBCHEM_CONFORMER_RMSD>
0.8

> <PUBCHEM_CONFORMER_DIVERSEORDER>
1
7
5
9
2
6
3
8
4

> <PUBCHEM_MMFF94_PARTIAL_CHARGES>
32
1 -0.11
10 -0.15
11 -0.15
12 0.08
13 0.11
14 0.11
15 -0.15
16 -0.15
17 0.3
18 -0.15
19 -0.15
2 -0.11
20 -0.15
21 0.69
22 0.15
23 0.15
24 0.15
25 0.15
26 0.37
27 0.06
28 0.15
29 0.15
3 -0.53
30 0.15
31 0.37
32 0.45
4 -0.57
5 -0.55
6 -0.37
7 -0.51
8 0.09
9 0.12

> <PUBCHEM_EFFECTIVE_ROTOR_COUNT>
5

> <PUBCHEM_PHARMACOPHORE_FEATURES>
9
1 1 hydrophobe
1 2 hydrophobe
1 3 donor
1 4 acceptor
1 5 donor
1 6 donor
1 7 acceptor
6 8 10 11 12 13 14 rings
6 9 15 16 18 19 20 rings

> <PUBCHEM_HEAVY_ATOM_COUNT>
21

> <PUBCHEM_ATOM_DEF_STEREO_COUNT>
0

> <PUBCHEM_ATOM_UDEF_STEREO_COUNT>
0

> <PUBCHEM_BOND_DEF_STEREO_COUNT>
0

> <PUBCHEM_BOND_UDEF_STEREO_COUNT>
1

> <PUBCHEM_ISOTOPIC_ATOM_COUNT>
0

> <PUBCHEM_COMPONENT_COUNT>
1

> <PUBCHEM_CACTVS_TAUTO_COUNT>
-1

> <PUBCHEM_CONFORMER_ID>
081B9BB400000001

> <PUBCHEM_MMFF94_ENERGY>
55.414

> <PUBCHEM_FEATURE_SELFOVERLAP>
45.729

> <PUBCHEM_SHAPE_FINGERPRINT>
10299344 5 18343866623690443215
10411042 1 18050285865962899770
10595046 47 18413109459060405609
10835480 77 18409164449968439528
11315181 36 18272091622085841537
11524674 6 16773795918381284631
11719270 70 17846778473050571687
12091667 2 17385724691140760565
12107183 9 17765722317021108808
12166972 35 18408325505680698085
12236239 1 18413108368191342857
12516196 113 18411981368788956601
13073987 5 18341614793596047065
13533116 47 18272087175992771954
13685833 64 18408605855042855818
14251732 16 18411138073398033825
14251764 18 18273214222740265453
14251764 46 18060420218130489196
14461889 52 18263078967568383994
14933364 13 18410293618651193525
15183329 4 18410575063594411667
15716309 27 18343864433478603495
17844677 252 18410580578311950517
18335252 98 18336270140946405795
19427546 62 18263083383253595448
20157964 124 18410576197782405592
20281389 69 18334293171552781661
20645477 70 18409166576573193986
21130935 74 18413109450808295659
21267235 1 18342461405413255110
21315763 28 18410855460181123712
220451 1 17917992802046963263
23081809 10 17988921163473343741
23402539 116 18343579655825289493
23536379 177 18411700976512860545
23559900 14 18340481287755875553
239999 70 18272657823213610990
255183 451 18055643820321163598
3004659 81 18334576828583271234
3014965 18 18337668616299109863
34797466 226 17489596696851622676
3545911 37 18410292531950504196
3663271 9 18272374161502135929
4073 2 18115029713560721554
465052 167 18201158763491215454
5104073 3 18130223753054371880
6025842 7 18411703184585038542

> <PUBCHEM_SHAPE_MULTIPOLES>
417.37
22.62
2.33
0.61
19.66
1.2
0
-0.86
0.01
-4.4
0
-0.08
0
0

> <PUBCHEM_SHAPE_SELFOVERLAP>
859.085

> <PUBCHEM_SHAPE_VOLUME>
245.7

> <PUBCHEM_COORDINATE_TYPE>
2
5
10

$$$$
