44405504
  -OEChem-10062121593D

 61 65  0     0  0  0  0  0  0999 V2000
    4.8398   -4.2599   -0.3852 O   0  0  0  0  0  0  0  0  0  0  0  0
    2.3250    3.7653    1.0149 O   0  0  0  0  0  0  0  0  0  0  0  0
    1.9955   -4.1656   -0.4353 N   0  0  0  0  0  0  0  0  0  0  0  0
   -1.5328   -3.5601    0.5490 N   0  0  0  0  0  0  0  0  0  0  0  0
   -3.7670   -3.0681    1.0989 N   0  0  0  0  0  0  0  0  0  0  0  0
   -2.1154    1.2004   -1.1178 N   0  0  0  0  0  0  0  0  0  0  0  0
   -5.7533   -0.0491    0.5789 N   0  0  0  0  0  0  0  0  0  0  0  0
   -4.3085    4.0352   -1.4971 N   0  0  0  0  0  0  0  0  0  0  0  0
    2.7284   -5.4058   -0.7257 C   0  0  0  0  0  0  0  0  0  0  0  0
    2.7765   -3.3218    0.4797 C   0  0  0  0  0  0  0  0  0  0  0  0
    0.6791   -4.4603    0.1269 C   0  0  0  0  0  0  0  0  0  0  0  0
    4.1030   -5.0732   -1.2991 C   0  0  0  0  0  0  0  0  0  0  0  0
    4.1494   -3.0377   -0.1230 C   0  0  0  0  0  0  0  0  0  0  0  0
   -0.2359   -3.2496   -0.0033 C   0  0  0  0  0  0  0  0  0  0  0  0
   -2.5983   -2.6737    0.5566 C   0  0  0  0  0  0  0  0  0  0  0  0
   -3.4586   -0.5169   -0.0006 C   0  0  0  0  0  0  0  0  0  0  0  0
   -2.3922   -1.4245   -0.0001 C   0  0  0  0  0  0  0  0  0  0  0  0
   -3.3388    0.7698   -0.5432 C   0  0  0  0  0  0  0  0  0  0  0  0
   -4.6966   -0.8852    0.5547 C   0  0  0  0  0  0  0  0  0  0  0  0
   -4.7752   -2.1640    1.0805 C   0  0  0  0  0  0  0  0  0  0  0  0
   -4.4217    1.6379   -0.5227 C   0  0  0  0  0  0  0  0  0  0  0  0
   -0.9933    1.8473   -0.5789 C   0  0  0  0  0  0  0  0  0  0  0  0
   -5.5961    1.1838    0.0450 C   0  0  0  0  0  0  0  0  0  0  0  0
    0.0934    2.1565   -1.3971 C   0  0  0  0  0  0  0  0  0  0  0  0
   -0.9646    2.1823    0.7750 C   0  0  0  0  0  0  0  0  0  0  0  0
    1.2373    3.1360    0.4923 C   0  0  0  0  0  0  0  0  0  0  0  0
    1.2085    2.8010   -0.8615 C   0  0  0  0  0  0  0  0  0  0  0  0
    0.1507    2.8265    1.3106 C   0  0  0  0  0  0  0  0  0  0  0  0
   -4.3591    2.9611   -1.0606 C   0  0  0  0  0  0  0  0  0  0  0  0
    3.5762    3.2855    0.6652 C   0  0  0  0  0  0  0  0  0  0  0  0
    3.8245    1.9129    0.6758 C   0  0  0  0  0  0  0  0  0  0  0  0
    4.5885    4.1747    0.3042 C   0  0  0  0  0  0  0  0  0  0  0  0
    5.0852    1.4294    0.3252 C   0  0  0  0  0  0  0  0  0  0  0  0
    5.8492    3.6912   -0.0463 C   0  0  0  0  0  0  0  0  0  0  0  0
    6.0973    2.3186   -0.0361 C   0  0  0  0  0  0  0  0  0  0  0  0
    2.8475   -5.9993    0.1902 H   0  0  0  0  0  0  0  0  0  0  0  0
    2.1802   -6.0125   -1.4556 H   0  0  0  0  0  0  0  0  0  0  0  0
    2.2891   -2.3591    0.6600 H   0  0  0  0  0  0  0  0  0  0  0  0
    2.9037   -3.8244    1.4475 H   0  0  0  0  0  0  0  0  0  0  0  0
    0.2132   -5.2856   -0.4291 H   0  0  0  0  0  0  0  0  0  0  0  0
    0.7481   -4.7955    1.1706 H   0  0  0  0  0  0  0  0  0  0  0  0
    4.0249   -4.5596   -2.2651 H   0  0  0  0  0  0  0  0  0  0  0  0
    4.6730   -5.9940   -1.4589 H   0  0  0  0  0  0  0  0  0  0  0  0
    4.7541   -2.4598    0.5833 H   0  0  0  0  0  0  0  0  0  0  0  0
    4.0727   -2.4538   -1.0484 H   0  0  0  0  0  0  0  0  0  0  0  0
    0.1828   -2.3934    0.5352 H   0  0  0  0  0  0  0  0  0  0  0  0
   -0.3256   -2.9880   -1.0653 H   0  0  0  0  0  0  0  0  0  0  0  0
   -1.6965   -4.4716    0.9616 H   0  0  0  0  0  0  0  0  0  0  0  0
   -1.4423   -1.1350   -0.4333 H   0  0  0  0  0  0  0  0  0  0  0  0
   -5.6996   -2.5214    1.5272 H   0  0  0  0  0  0  0  0  0  0  0  0
   -2.0499    0.9846   -2.1083 H   0  0  0  0  0  0  0  0  0  0  0  0
   -6.4834    1.8085    0.0957 H   0  0  0  0  0  0  0  0  0  0  0  0
    0.0819    1.9056   -2.4547 H   0  0  0  0  0  0  0  0  0  0  0  0
   -1.7966    1.9531    1.4354 H   0  0  0  0  0  0  0  0  0  0  0  0
    2.0305    3.0503   -1.5274 H   0  0  0  0  0  0  0  0  0  0  0  0
    0.1678    3.0847    2.3659 H   0  0  0  0  0  0  0  0  0  0  0  0
    3.0612    1.1991    0.9741 H   0  0  0  0  0  0  0  0  0  0  0  0
    4.4005    5.2447    0.2943 H   0  0  0  0  0  0  0  0  0  0  0  0
    5.2800    0.3610    0.3378 H   0  0  0  0  0  0  0  0  0  0  0  0
    6.6375    4.3834   -0.3272 H   0  0  0  0  0  0  0  0  0  0  0  0
    7.0791    1.9422   -0.3081 H   0  0  0  0  0  0  0  0  0  0  0  0
  1 12  1  0  0  0  0
  1 13  1  0  0  0  0
  2 26  1  0  0  0  0
  2 30  1  0  0  0  0
  3  9  1  0  0  0  0
  3 10  1  0  0  0  0
  3 11  1  0  0  0  0
  4 14  1  0  0  0  0
  4 15  1  0  0  0  0
  4 48  1  0  0  0  0
  5 15  2  0  0  0  0
  5 20  1  0  0  0  0
  6 18  1  0  0  0  0
  6 22  1  0  0  0  0
  6 51  1  0  0  0  0
  7 19  1  0  0  0  0
  7 23  2  0  0  0  0
  8 29  3  0  0  0  0
  9 12  1  0  0  0  0
  9 36  1  0  0  0  0
  9 37  1  0  0  0  0
 10 13  1  0  0  0  0
 10 38  1  0  0  0  0
 10 39  1  0  0  0  0
 11 14  1  0  0  0  0
 11 40  1  0  0  0  0
 11 41  1  0  0  0  0
 12 42  1  0  0  0  0
 12 43  1  0  0  0  0
 13 44  1  0  0  0  0
 13 45  1  0  0  0  0
 14 46  1  0  0  0  0
 14 47  1  0  0  0  0
 15 17  1  0  0  0  0
 16 17  2  0  0  0  0
 16 18  1  0  0  0  0
 16 19  1  0  0  0  0
 17 49  1  0  0  0  0
 18 21  2  0  0  0  0
 19 20  2  0  0  0  0
 20 50  1  0  0  0  0
 21 23  1  0  0  0  0
 21 29  1  0  0  0  0
 22 24  2  0  0  0  0
 22 25  1  0  0  0  0
 23 52  1  0  0  0  0
 24 27  1  0  0  0  0
 24 53  1  0  0  0  0
 25 28  2  0  0  0  0
 25 54  1  0  0  0  0
 26 27  2  0  0  0  0
 26 28  1  0  0  0  0
 27 55  1  0  0  0  0
 28 56  1  0  0  0  0
 30 31  2  0  0  0  0
 30 32  1  0  0  0  0
 31 33  1  0  0  0  0
 31 57  1  0  0  0  0
 32 34  2  0  0  0  0
 32 58  1  0  0  0  0
 33 35  2  0  0  0  0
 33 59  1  0  0  0  0
 34 35  1  0  0  0  0
 34 60  1  0  0  0  0
 35 61  1  0  0  0  0
M  END
> <PUBCHEM_COMPOUND_CID>
44405504

> <PUBCHEM_CONFORMER_RMSD>
1.2

> <PUBCHEM_CONFORMER_DIVERSEORDER>
1
6
2
17
94
90
59
73
45
30
70
39
9
89
87
4
49
19
64
81
92
86
3
15
29
93
88
35
20
83
77
55
27
60
23
65
26
43
13
66
85
10
11
38
24
51
79
68
76
54
82
25
12
67
61
75
33
18
37
80
44
58
8
47
57
46
62
21
69
78
41
50
56
72
22
48
31
28
14
52
34
36
84
91
71
40
63
16
5
7
32
53
42
74

> <PUBCHEM_MMFF94_PARTIAL_CHARGES>
48
1 -0.56
10 0.27
11 0.27
12 0.28
13 0.28
14 0.37
15 0.41
17 -0.15
18 0.1
19 0.31
2 -0.17
20 0.16
21 0.07
22 0.1
23 0.16
24 -0.15
25 -0.15
26 0.08
27 -0.15
28 -0.15
29 0.48
3 -0.81
30 0.08
31 -0.15
32 -0.15
33 -0.15
34 -0.15
35 -0.15
4 -0.87
48 0.4
49 0.15
5 -0.62
50 0.15
51 0.4
52 0.15
53 0.15
54 0.15
55 0.15
56 0.15
57 0.15
58 0.15
59 0.15
6 -0.6
60 0.15
61 0.15
7 -0.62
8 -0.56
9 0.27

> <PUBCHEM_EFFECTIVE_ROTOR_COUNT>
9.2

> <PUBCHEM_PHARMACOPHORE_FEATURES>
14
1 1 acceptor
1 2 acceptor
1 3 cation
1 4 donor
1 6 cation
1 6 donor
1 7 acceptor
1 8 acceptor
3 4 5 15 cation
6 1 3 9 10 12 13 rings
6 22 24 25 26 27 28 rings
6 30 31 32 33 34 35 rings
6 5 15 16 17 19 20 rings
6 7 16 18 19 21 23 rings

> <PUBCHEM_HEAVY_ATOM_COUNT>
35

> <PUBCHEM_ATOM_DEF_STEREO_COUNT>
0

> <PUBCHEM_ATOM_UDEF_STEREO_COUNT>
0

> <PUBCHEM_BOND_DEF_STEREO_COUNT>
0

> <PUBCHEM_BOND_UDEF_STEREO_COUNT>
0

> <PUBCHEM_ISOTOPIC_ATOM_COUNT>
0

> <PUBCHEM_COMPONENT_COUNT>
1

> <PUBCHEM_CACTVS_TAUTO_COUNT>
6

> <PUBCHEM_CONFORMER_ID>
02A5930000000001

> <PUBCHEM_MMFF94_ENERGY>
127.4336

> <PUBCHEM_FEATURE_SELFOVERLAP>
71.081

> <PUBCHEM_SHAPE_FINGERPRINT>
10290309 65 18339359777241980764
10940486 97 17326334827505310212
11049842 53 18114479880754167637
11513181 2 18341885324822326302
11763389 116 18340209704220612050
12788726 201 17400076371167492499
14028597 1 17702127917907450635
14394314 77 17187851913808199281
14647877 51 18410295770113395186
14849402 71 17402608551348694653
15064986 96 18333453153965276411
15230672 131 18334005082732396512
15320467 1 17834957847342633978
15400415 2 18267865180081251032
15439362 3 18264479608376467421
15927050 60 18341891956399335935
15968369 26 18192972873594453836
16067689 134 17116916916441289097
16067689 302 18411698825431357087
17627616 140 18411136965629040642
20771845 165 18042392566033246133
229767 44 17833836345028634898
23516275 137 18262539068825740552
23559900 14 18194393390497430664
45266715 3 18265879411042339111
50677037 204 17550103663013796554
5265222 85 18048886483127274332

> <PUBCHEM_SHAPE_MULTIPOLES>
678.66
13.62
9.44
1.13
2.28
11
0.13
-6.41
-0.58
12.01
1.47
-0.42
-0.35
4.03

> <PUBCHEM_SHAPE_SELFOVERLAP>
1482.435

> <PUBCHEM_SHAPE_VOLUME>
363.7

> <PUBCHEM_COORDINATE_TYPE>
2
5
10

$$$$
