9869773
  -OEChem-10062121583D

 60 67  0     1  0  0  0  0  0999 V2000
   -1.1391    1.9600   -1.7697 O   0  0  0  0  0  0  0  0  0  0  0  0
   -3.9547    1.4514    0.5938 O   0  0  0  0  0  0  0  0  0  0  0  0
    0.9535   -4.8267    0.3313 O   0  0  0  0  0  0  0  0  0  0  0  0
    4.6448   -2.0866    0.3337 O   0  0  0  0  0  0  0  0  0  0  0  0
   -1.6152   -0.0343   -0.5998 N   0  0  0  0  0  0  0  0  0  0  0  0
    0.8055    1.7312   -0.5337 N   0  0  0  0  0  0  0  0  0  0  0  0
   -1.4469    1.8678    1.9660 N   0  0  0  0  0  0  0  0  0  0  0  0
    3.0177   -3.7532    0.4136 N   0  0  0  0  0  0  0  0  0  0  0  0
   -2.1717    1.2182   -1.1174 C   0  0  1  0  0  0  0  0  0  0  0  0
   -2.8914    2.1161   -0.0721 C   0  0  2  0  0  0  0  0  0  0  0  0
   -0.2311    2.6431   -0.9374 C   0  0  2  0  0  0  0  0  0  0  0  0
   -1.9634    2.7813    0.9495 C   0  0  2  0  0  0  0  0  0  0  0  0
   -0.8449    3.4814    0.1880 C   0  0  0  0  0  0  0  0  0  0  0  0
   -0.3174   -0.4659   -0.4071 C   0  0  0  0  0  0  0  0  0  0  0  0
    0.8383    0.3758   -0.3865 C   0  0  0  0  0  0  0  0  0  0  0  0
   -0.0374   -1.8674   -0.1365 C   0  0  0  0  0  0  0  0  0  0  0  0
    2.1049   -0.2914   -0.1361 C   0  0  0  0  0  0  0  0  0  0  0  0
   -2.3287   -1.2223   -0.3316 C   0  0  0  0  0  0  0  0  0  0  0  0
   -3.1267    0.9528   -2.3082 C   0  0  0  0  0  0  0  0  0  0  0  0
    2.1451    2.0816   -0.3507 C   0  0  0  0  0  0  0  0  0  0  0  0
   -1.4284   -2.3106   -0.1007 C   0  0  0  0  0  0  0  0  0  0  0  0
    2.9359    0.9173   -0.1292 C   0  0  0  0  0  0  0  0  0  0  0  0
    1.2064   -2.4670    0.0422 C   0  0  0  0  0  0  0  0  0  0  0  0
    2.3164   -1.6511    0.0400 C   0  0  0  0  0  0  0  0  0  0  0  0
   -3.7223   -1.4610   -0.2808 C   0  0  0  0  0  0  0  0  0  0  0  0
    2.7323    3.3646   -0.3747 C   0  0  0  0  0  0  0  0  0  0  0  0
   -1.9888   -3.5914    0.1521 C   0  0  0  0  0  0  0  0  0  0  0  0
    1.6517   -3.8343    0.2796 C   0  0  0  0  0  0  0  0  0  0  0  0
    3.4942   -2.4716    0.2781 C   0  0  0  0  0  0  0  0  0  0  0  0
    4.3277    1.1069    0.0681 C   0  0  0  0  0  0  0  0  0  0  0  0
   -0.6460    2.5854    2.9460 C   0  0  0  0  0  0  0  0  0  0  0  0
   -4.7312    2.3535    1.3719 C   0  0  0  0  0  0  0  0  0  0  0  0
   -4.2245   -2.7383   -0.0277 C   0  0  0  0  0  0  0  0  0  0  0  0
   -3.3670   -3.7973    0.1828 C   0  0  0  0  0  0  0  0  0  0  0  0
    4.1060    3.4984   -0.1777 C   0  0  0  0  0  0  0  0  0  0  0  0
    4.8964    2.3834    0.0411 C   0  0  0  0  0  0  0  0  0  0  0  0
   -3.3375    2.9385   -0.6541 H   0  0  0  0  0  0  0  0  0  0  0  0
    0.2626    3.3508   -1.6150 H   0  0  0  0  0  0  0  0  0  0  0  0
   -2.5231    3.5661    1.4737 H   0  0  0  0  0  0  0  0  0  0  0  0
   -1.3145    4.3490   -0.3005 H   0  0  0  0  0  0  0  0  0  0  0  0
   -0.0748    3.9186    0.8297 H   0  0  0  0  0  0  0  0  0  0  0  0
   -4.1142    0.5960   -2.0146 H   0  0  0  0  0  0  0  0  0  0  0  0
   -3.2882    1.8737   -2.8839 H   0  0  0  0  0  0  0  0  0  0  0  0
   -2.6917    0.2294   -3.0089 H   0  0  0  0  0  0  0  0  0  0  0  0
   -0.8881    1.1271    1.5558 H   0  0  0  0  0  0  0  0  0  0  0  0
   -4.4440   -0.6678   -0.4296 H   0  0  0  0  0  0  0  0  0  0  0  0
    2.1301    4.2531   -0.5420 H   0  0  0  0  0  0  0  0  0  0  0  0
   -1.3518   -4.4477    0.3409 H   0  0  0  0  0  0  0  0  0  0  0  0
    4.9845    0.2633    0.2480 H   0  0  0  0  0  0  0  0  0  0  0  0
    0.3511    2.8382    2.5743 H   0  0  0  0  0  0  0  0  0  0  0  0
   -0.4949    1.9336    3.8132 H   0  0  0  0  0  0  0  0  0  0  0  0
   -1.1438    3.4888    3.3136 H   0  0  0  0  0  0  0  0  0  0  0  0
   -4.9519    3.2806    0.8333 H   0  0  0  0  0  0  0  0  0  0  0  0
   -4.2530    2.5615    2.3329 H   0  0  0  0  0  0  0  0  0  0  0  0
   -5.6835    1.8610    1.5912 H   0  0  0  0  0  0  0  0  0  0  0  0
    3.6121   -4.5564    0.5854 H   0  0  0  0  0  0  0  0  0  0  0  0
   -5.2991   -2.8958    0.0044 H   0  0  0  0  0  0  0  0  0  0  0  0
   -3.7619   -4.7893    0.3815 H   0  0  0  0  0  0  0  0  0  0  0  0
    4.5572    4.4867   -0.1953 H   0  0  0  0  0  0  0  0  0  0  0  0
    5.9657    2.4986    0.1953 H   0  0  0  0  0  0  0  0  0  0  0  0
  1  9  1  0  0  0  0
  1 11  1  0  0  0  0
  2 10  1  0  0  0  0
  2 32  1  0  0  0  0
  3 28  2  0  0  0  0
  4 29  2  0  0  0  0
  5  9  1  0  0  0  0
  5 14  1  0  0  0  0
  5 18  1  0  0  0  0
  6 11  1  0  0  0  0
  6 15  1  0  0  0  0
  6 20  1  0  0  0  0
  7 12  1  0  0  0  0
  7 31  1  0  0  0  0
  7 45  1  0  0  0  0
  8 28  1  0  0  0  0
  8 29  1  0  0  0  0
  8 56  1  0  0  0  0
  9 10  1  0  0  0  0
  9 19  1  0  0  0  0
 10 12  1  0  0  0  0
 10 37  1  0  0  0  0
 11 13  1  0  0  0  0
 11 38  1  0  0  0  0
 12 13  1  0  0  0  0
 12 39  1  0  0  0  0
 13 40  1  0  0  0  0
 13 41  1  0  0  0  0
 14 15  2  0  0  0  0
 14 16  1  0  0  0  0
 15 17  1  0  0  0  0
 16 21  1  0  0  0  0
 16 23  2  0  0  0  0
 17 22  1  0  0  0  0
 17 24  2  0  0  0  0
 18 21  1  0  0  0  0
 18 25  2  0  0  0  0
 19 42  1  0  0  0  0
 19 43  1  0  0  0  0
 19 44  1  0  0  0  0
 20 22  1  0  0  0  0
 20 26  2  0  0  0  0
 21 27  2  0  0  0  0
 22 30  2  0  0  0  0
 23 24  1  0  0  0  0
 23 28  1  0  0  0  0
 24 29  1  0  0  0  0
 25 33  1  0  0  0  0
 25 46  1  0  0  0  0
 26 35  1  0  0  0  0
 26 47  1  0  0  0  0
 27 34  1  0  0  0  0
 27 48  1  0  0  0  0
 30 36  1  0  0  0  0
 30 49  1  0  0  0  0
 31 50  1  0  0  0  0
 31 51  1  0  0  0  0
 31 52  1  0  0  0  0
 32 53  1  0  0  0  0
 32 54  1  0  0  0  0
 32 55  1  0  0  0  0
 33 34  2  0  0  0  0
 33 57  1  0  0  0  0
 34 58  1  0  0  0  0
 35 36  2  0  0  0  0
 35 59  1  0  0  0  0
 36 60  1  0  0  0  0
M  END
> <PUBCHEM_COMPOUND_CID>
9869773

> <PUBCHEM_CONFORMER_RMSD>
0.8

> <PUBCHEM_CONFORMER_DIVERSEORDER>
1

> <PUBCHEM_MMFF94_PARTIAL_CHARGES>
42
1 -0.56
10 0.28
11 0.54
12 0.27
14 -0.05
15 -0.05
16 -0.01
17 -0.01
18 -0.15
2 -0.56
20 -0.15
23 0.09
24 0.09
25 -0.15
26 -0.15
27 -0.15
28 0.54
29 0.54
3 -0.57
30 -0.15
31 0.27
32 0.28
33 -0.15
34 -0.15
35 -0.15
36 -0.15
4 -0.57
45 0.36
46 0.15
47 0.15
48 0.15
49 0.15
5 -0.04
56 0.37
57 0.15
58 0.15
59 0.15
6 -0.04
60 0.15
7 -0.9
8 -0.49
9 0.54

> <PUBCHEM_EFFECTIVE_ROTOR_COUNT>
3

> <PUBCHEM_PHARMACOPHORE_FEATURES>
17
1 1 acceptor
1 2 acceptor
1 3 acceptor
1 4 acceptor
1 5 cation
1 6 cation
1 7 cation
1 7 donor
1 8 donor
5 5 14 16 18 21 rings
5 6 15 17 20 22 rings
5 8 23 24 28 29 rings
6 1 9 10 11 12 13 rings
6 14 15 16 17 23 24 rings
6 18 21 25 27 33 34 rings
6 20 22 26 30 35 36 rings
7 1 5 6 9 11 14 15 rings

> <PUBCHEM_HEAVY_ATOM_COUNT>
36

> <PUBCHEM_ATOM_DEF_STEREO_COUNT>
4

> <PUBCHEM_ATOM_UDEF_STEREO_COUNT>
0

> <PUBCHEM_BOND_DEF_STEREO_COUNT>
0

> <PUBCHEM_BOND_UDEF_STEREO_COUNT>
0

> <PUBCHEM_ISOTOPIC_ATOM_COUNT>
0

> <PUBCHEM_COMPONENT_COUNT>
1

> <PUBCHEM_CACTVS_TAUTO_COUNT>
3

> <PUBCHEM_CONFORMER_ID>
009699CD00000001

> <PUBCHEM_MMFF94_ENERGY>
159.4332

> <PUBCHEM_FEATURE_SELFOVERLAP>
87.391

> <PUBCHEM_SHAPE_FINGERPRINT>
10006869 2 18342739646010910823
10190108 129 17974324119722055059
10290309 65 18048866696534305172
10675989 125 18263064558138059719
1100329 8 18338798884002770787
11513181 2 18130794489878992294
12553582 1 17977659810757870030
12788726 201 17835540579588568132
13140716 1 18410293596965198182
140371 6 18267573611909834566
14790565 3 17903361746534176637
14955137 171 17618517483948914246
15320467 1 18049724319202150636
15439362 3 18191567675943588620
15927050 60 18412270523061223525
16728300 4 17536269891645028450
19311894 1 17689713061014103923
19591789 44 17471572603857044671
20028762 73 17694222579248489494
20764821 26 18408601448696716406
20775438 99 17617039977246512503
21796203 349 17402089637102979586
22121540 332 13971200075108664587
23559900 14 18337373964710719350
283562 15 18122906696397408438
350125 39 18336828684295023230
392239 28 18054513770314993072
469060 322 18191595356859630865
484989 97 16966604348529636823
50150288 127 17488766526506145841
57527295 17 17914023617264583957
57527306 92 16484749798568498739

> <PUBCHEM_SHAPE_MULTIPOLES>
697.46
8.05
6.41
1.37
2.83
4.2
-0.45
-0.95
-0.13
-0.02
-1.54
-0.98
-1.57
-0.94

> <PUBCHEM_SHAPE_SELFOVERLAP>
1613.414

> <PUBCHEM_SHAPE_VOLUME>
353.7

> <PUBCHEM_COORDINATE_TYPE>
2
5
10

$$$$
