49830902
  -OEChem-10062121543D

 35 37  0     0  0  0  0  0  0999 V2000
    5.6440    0.3261    1.1363 O   0  0  0  0  0  0  0  0  0  0  0  0
   -1.4227    1.3245   -0.0317 N   0  0  0  0  0  0  0  0  0  0  0  0
   -4.0933   -0.9594    0.1527 N   0  0  0  0  0  0  0  0  0  0  0  0
   -3.7768    1.8970   -0.0814 N   0  0  0  0  0  0  0  0  0  0  0  0
   -1.5717   -0.8950    0.1502 C   0  0  0  0  0  0  0  0  0  0  0  0
   -0.6928    0.1651    0.0643 C   0  0  0  0  0  0  0  0  0  0  0  0
   -2.8784   -0.3563    0.1045 C   0  0  0  0  0  0  0  0  0  0  0  0
   -1.2222   -2.3257    0.2674 C   0  0  0  0  0  0  0  0  0  0  0  0
    0.7518    0.1827    0.0673 C   0  0  0  0  0  0  0  0  0  0  0  0
   -2.7568    1.0224   -0.0085 C   0  0  0  0  0  0  0  0  0  0  0  0
   -0.7706   -2.9384   -1.0621 C   0  0  0  0  0  0  0  0  0  0  0  0
    1.4532   -0.3234    1.1617 C   0  0  0  0  0  0  0  0  0  0  0  0
    1.4452    0.7054   -1.0244 C   0  0  0  0  0  0  0  0  0  0  0  0
    3.5412    0.2164    0.0729 C   0  0  0  0  0  0  0  0  0  0  0  0
    2.8479   -0.3065    1.1646 C   0  0  0  0  0  0  0  0  0  0  0  0
    2.8400    0.7223   -1.0215 C   0  0  0  0  0  0  0  0  0  0  0  0
   -5.1267   -0.0948    0.0805 C   0  0  0  0  0  0  0  0  0  0  0  0
   -4.9741    1.2761   -0.0318 C   0  0  0  0  0  0  0  0  0  0  0  0
    4.9954    0.2310    0.0753 C   0  0  0  0  0  0  0  0  0  0  0  0
    5.7673    0.1303   -1.2361 C   0  0  0  0  0  0  0  0  0  0  0  0
   -0.4383   -2.4749    1.0174 H   0  0  0  0  0  0  0  0  0  0  0  0
   -2.0890   -2.8923    0.6299 H   0  0  0  0  0  0  0  0  0  0  0  0
   -1.0393    2.2570   -0.1059 H   0  0  0  0  0  0  0  0  0  0  0  0
    0.1351   -2.4526   -1.4392 H   0  0  0  0  0  0  0  0  0  0  0  0
   -0.5546   -4.0034   -0.9315 H   0  0  0  0  0  0  0  0  0  0  0  0
   -1.5501   -2.8384   -1.8250 H   0  0  0  0  0  0  0  0  0  0  0  0
    0.9323   -0.7253    2.0273 H   0  0  0  0  0  0  0  0  0  0  0  0
    0.9157    1.1032   -1.8870 H   0  0  0  0  0  0  0  0  0  0  0  0
    3.3773   -0.7069    2.0253 H   0  0  0  0  0  0  0  0  0  0  0  0
    3.3542    1.1458   -1.8798 H   0  0  0  0  0  0  0  0  0  0  0  0
   -6.1127   -0.5450    0.1162 H   0  0  0  0  0  0  0  0  0  0  0  0
   -5.8382    1.9296   -0.0865 H   0  0  0  0  0  0  0  0  0  0  0  0
    5.9320    1.1315   -1.6415 H   0  0  0  0  0  0  0  0  0  0  0  0
    5.2274   -0.4887   -1.9578 H   0  0  0  0  0  0  0  0  0  0  0  0
    6.7314   -0.3512   -1.0466 H   0  0  0  0  0  0  0  0  0  0  0  0
  1 19  2  0  0  0  0
  2  6  1  0  0  0  0
  2 10  1  0  0  0  0
  2 23  1  0  0  0  0
  3  7  2  0  0  0  0
  3 17  1  0  0  0  0
  4 10  2  0  0  0  0
  4 18  1  0  0  0  0
  5  6  2  0  0  0  0
  5  7  1  0  0  0  0
  5  8  1  0  0  0  0
  6  9  1  0  0  0  0
  7 10  1  0  0  0  0
  8 11  1  0  0  0  0
  8 21  1  0  0  0  0
  8 22  1  0  0  0  0
  9 12  2  0  0  0  0
  9 13  1  0  0  0  0
 11 24  1  0  0  0  0
 11 25  1  0  0  0  0
 11 26  1  0  0  0  0
 12 15  1  0  0  0  0
 12 27  1  0  0  0  0
 13 16  2  0  0  0  0
 13 28  1  0  0  0  0
 14 15  2  0  0  0  0
 14 16  1  0  0  0  0
 14 19  1  0  0  0  0
 15 29  1  0  0  0  0
 16 30  1  0  0  0  0
 17 18  2  0  0  0  0
 17 31  1  0  0  0  0
 18 32  1  0  0  0  0
 19 20  1  0  0  0  0
 20 33  1  0  0  0  0
 20 34  1  0  0  0  0
 20 35  1  0  0  0  0
M  END
> <PUBCHEM_COMPOUND_CID>
49830902

> <PUBCHEM_CONFORMER_RMSD>
0.6

> <PUBCHEM_CONFORMER_DIVERSEORDER>
1
4
7
10
5
2
3
8
9
6

> <PUBCHEM_MMFF94_PARTIAL_CHARGES>
26
1 -0.57
10 0.11
12 -0.15
13 -0.15
14 0.09
15 -0.15
16 -0.15
17 0.16
18 0.16
19 0.42
2 0.03
20 0.06
23 0.27
27 0.15
28 0.15
29 0.15
3 -0.57
30 0.15
31 0.15
32 0.15
4 -0.57
5 -0.18
6 -0.2
7 0.26
8 0.18
9 0.05

> <PUBCHEM_EFFECTIVE_ROTOR_COUNT>
3

> <PUBCHEM_PHARMACOPHORE_FEATURES>
8
1 1 acceptor
1 11 hydrophobe
1 2 donor
1 3 acceptor
3 2 4 10 cation
5 2 5 6 7 10 rings
6 3 4 7 10 17 18 rings
6 9 12 13 14 15 16 rings

> <PUBCHEM_HEAVY_ATOM_COUNT>
20

> <PUBCHEM_ATOM_DEF_STEREO_COUNT>
0

> <PUBCHEM_ATOM_UDEF_STEREO_COUNT>
0

> <PUBCHEM_BOND_DEF_STEREO_COUNT>
0

> <PUBCHEM_BOND_UDEF_STEREO_COUNT>
0

> <PUBCHEM_ISOTOPIC_ATOM_COUNT>
0

> <PUBCHEM_COMPONENT_COUNT>
1

> <PUBCHEM_CACTVS_TAUTO_COUNT>
171

> <PUBCHEM_CONFORMER_ID>
02F85BF600000001

> <PUBCHEM_MMFF94_ENERGY>
47.1543

> <PUBCHEM_FEATURE_SELFOVERLAP>
40.728

> <PUBCHEM_SHAPE_FINGERPRINT>
107951 10 18334023799899854406
11963148 33 18337385059092578963
12107183 9 17247785257065451752
12236239 1 17894348882222495848
12390115 104 18200040525790412497
12403259 415 18130783469155998689
12500047 106 18272646874693009622
13533116 47 17703231703080809606
13760787 5 16443061712660121870
14573314 32 18130794421475395740
15042514 8 18194688287938784819
15375358 24 17775287175066782734
16752209 62 18340195405947656863
1813 80 16515968060834300078
18186145 218 17489582368581682443
187816 3 17775287157702290969
19489759 90 18272370862566513905
200 152 17458343052566024009
20279233 1 17489596683623270766
20645477 56 18413387657082349976
20645477 70 16271936982798615756
20681677 155 18335701676223314858
21033648 29 18059840762449477793
21267235 1 18187093874793081043
22224240 67 18343026597455812291
2297311 6 18271816712948477476
23175994 123 17132120160107292720
23366157 5 17900265195816183747
23402539 116 18343858931256433789
23557571 272 18130235882490771772
23559900 14 18131914875748692320
23598288 3 18045796829361393687
26918003 58 15864075360188077185
3004659 81 18336831880225821766
34797466 226 18130238159150441076
3545911 37 18335704922743726296
474 4 16951699179992925372
474229 33 18411138052556278047
5104073 3 18334856069728595946
5385378 56 18198352762445922627
542803 24 17821730537534067880
58051976 100 18261957443816568406
59755656 215 18343025449655338183
69090 78 18410291423574563799

> <PUBCHEM_SHAPE_MULTIPOLES>
390.78
11.74
1.86
1.05
6.22
1.39
0.02
-3.56
0.17
-2.02
0.45
1.21
0.13
-0.19

> <PUBCHEM_SHAPE_SELFOVERLAP>
860.271

> <PUBCHEM_SHAPE_VOLUME>
210.4

> <PUBCHEM_COORDINATE_TYPE>
2
5
10

$$$$
