11496376
  -OEChem-10062121593D

 63 67  0     0  0  0  0  0  0999 V2000
    5.3228   -3.0999    0.8261 O   0  0  0  0  0  0  0  0  0  0  0  0
    2.5644   -3.7834    0.6643 N   0  0  0  0  0  0  0  0  0  0  0  0
   -0.9007   -3.6140   -0.6579 N   0  0  0  0  0  0  0  0  0  0  0  0
   -3.1260   -3.3641   -1.4623 N   0  0  0  0  0  0  0  0  0  0  0  0
   -2.3913    0.8699    1.2570 N   0  0  0  0  0  0  0  0  0  0  0  0
   -5.5776   -0.6999   -0.9917 N   0  0  0  0  0  0  0  0  0  0  0  0
   -5.0022    3.3380    1.5479 N   0  0  0  0  0  0  0  0  0  0  0  0
    3.6156   -4.8080    0.5960 C   0  0  0  0  0  0  0  0  0  0  0  0
    3.0715   -2.5064    0.1430 C   0  0  0  0  0  0  0  0  0  0  0  0
    1.3760   -4.2093   -0.0719 C   0  0  0  0  0  0  0  0  0  0  0  0
    4.8488   -4.3362    1.3610 C   0  0  0  0  0  0  0  0  0  0  0  0
    4.3183   -2.0888    0.9177 C   0  0  0  0  0  0  0  0  0  0  0  0
    0.2615   -3.1822    0.0811 C   0  0  0  0  0  0  0  0  0  0  0  0
   -2.0751   -2.8828   -0.7411 C   0  0  0  0  0  0  0  0  0  0  0  0
   -3.3261   -0.9046   -0.1496 C   0  0  0  0  0  0  0  0  0  0  0  0
   -2.1471   -1.6564   -0.0748 C   0  0  0  0  0  0  0  0  0  0  0  0
   -3.4607    0.3319    0.4962 C   0  0  0  0  0  0  0  0  0  0  0  0
   -4.4213   -1.3846   -0.8889 C   0  0  0  0  0  0  0  0  0  0  0  0
   -1.3190    1.7093    0.9197 C   0  0  0  0  0  0  0  0  0  0  0  0
   -4.2494   -2.6095   -1.5119 C   0  0  0  0  0  0  0  0  0  0  0  0
    0.8191    3.3827    0.2473 C   0  0  0  0  0  0  0  0  0  0  0  0
   -4.6479    1.0446    0.3959 C   0  0  0  0  0  0  0  0  0  0  0  0
    1.9584    4.2759   -0.1110 C   0  0  0  0  0  0  0  0  0  0  0  0
   -0.3905    2.0923    1.8929 C   0  0  0  0  0  0  0  0  0  0  0  0
   -1.1700    2.1696   -0.3926 C   0  0  0  0  0  0  0  0  0  0  0  0
    0.6757    2.9270    1.5576 C   0  0  0  0  0  0  0  0  0  0  0  0
   -0.1037    3.0041   -0.7278 C   0  0  0  0  0  0  0  0  0  0  0  0
   -5.6667    0.4893   -0.3534 C   0  0  0  0  0  0  0  0  0  0  0  0
    3.2024    3.5356   -0.5596 C   0  0  0  0  0  0  0  0  0  0  0  0
    3.3657    3.2448   -1.9019 C   0  0  0  0  0  0  0  0  0  0  0  0
    4.1449    3.1688    0.3839 C   0  0  0  0  0  0  0  0  0  0  0  0
   -4.8433    2.3099    1.0316 C   0  0  0  0  0  0  0  0  0  0  0  0
    4.5108    2.5637   -2.3149 C   0  0  0  0  0  0  0  0  0  0  0  0
    5.2900    2.4877   -0.0294 C   0  0  0  0  0  0  0  0  0  0  0  0
    5.4728    2.1852   -1.3787 C   0  0  0  0  0  0  0  0  0  0  0  0
    3.8881   -5.0044   -0.4493 H   0  0  0  0  0  0  0  0  0  0  0  0
    3.2619   -5.7467    1.0372 H   0  0  0  0  0  0  0  0  0  0  0  0
    2.3596   -1.6876    0.2723 H   0  0  0  0  0  0  0  0  0  0  0  0
    3.3135   -2.5943   -0.9239 H   0  0  0  0  0  0  0  0  0  0  0  0
    1.0228   -5.1709    0.3231 H   0  0  0  0  0  0  0  0  0  0  0  0
    1.6019   -4.3678   -1.1352 H   0  0  0  0  0  0  0  0  0  0  0  0
    5.6533   -5.0719    1.2612 H   0  0  0  0  0  0  0  0  0  0  0  0
    4.6400   -4.2163    2.4311 H   0  0  0  0  0  0  0  0  0  0  0  0
    4.7327   -1.1697    0.4907 H   0  0  0  0  0  0  0  0  0  0  0  0
    4.0930   -1.8914    1.9730 H   0  0  0  0  0  0  0  0  0  0  0  0
    0.5610   -2.2157   -0.3316 H   0  0  0  0  0  0  0  0  0  0  0  0
    0.0183   -3.0609    1.1439 H   0  0  0  0  0  0  0  0  0  0  0  0
   -0.8805   -4.4998   -1.1505 H   0  0  0  0  0  0  0  0  0  0  0  0
   -1.3092   -1.2830    0.5038 H   0  0  0  0  0  0  0  0  0  0  0  0
   -2.4161    0.5787    2.2300 H   0  0  0  0  0  0  0  0  0  0  0  0
   -5.0513   -3.0463   -2.1016 H   0  0  0  0  0  0  0  0  0  0  0  0
    1.6496    4.9800   -0.8964 H   0  0  0  0  0  0  0  0  0  0  0  0
    2.2072    4.9253    0.7401 H   0  0  0  0  0  0  0  0  0  0  0  0
   -0.4893    1.7447    2.9183 H   0  0  0  0  0  0  0  0  0  0  0  0
   -1.8735    1.8906   -1.1727 H   0  0  0  0  0  0  0  0  0  0  0  0
    1.3867    3.2146    2.3275 H   0  0  0  0  0  0  0  0  0  0  0  0
   -0.0043    3.3525   -1.7525 H   0  0  0  0  0  0  0  0  0  0  0  0
   -6.6227    0.9908   -0.4754 H   0  0  0  0  0  0  0  0  0  0  0  0
    2.6227    3.5357   -2.6386 H   0  0  0  0  0  0  0  0  0  0  0  0
    4.0118    3.4000    1.4366 H   0  0  0  0  0  0  0  0  0  0  0  0
    4.6532    2.3279   -3.3655 H   0  0  0  0  0  0  0  0  0  0  0  0
    6.0390    2.1922    0.6996 H   0  0  0  0  0  0  0  0  0  0  0  0
    6.3641    1.6544   -1.7001 H   0  0  0  0  0  0  0  0  0  0  0  0
  1 11  1  0  0  0  0
  1 12  1  0  0  0  0
  2  8  1  0  0  0  0
  2  9  1  0  0  0  0
  2 10  1  0  0  0  0
  3 13  1  0  0  0  0
  3 14  1  0  0  0  0
  3 48  1  0  0  0  0
  4 14  2  0  0  0  0
  4 20  1  0  0  0  0
  5 17  1  0  0  0  0
  5 19  1  0  0  0  0
  5 50  1  0  0  0  0
  6 18  1  0  0  0  0
  6 28  2  0  0  0  0
  7 32  3  0  0  0  0
  8 11  1  0  0  0  0
  8 36  1  0  0  0  0
  8 37  1  0  0  0  0
  9 12  1  0  0  0  0
  9 38  1  0  0  0  0
  9 39  1  0  0  0  0
 10 13  1  0  0  0  0
 10 40  1  0  0  0  0
 10 41  1  0  0  0  0
 11 42  1  0  0  0  0
 11 43  1  0  0  0  0
 12 44  1  0  0  0  0
 12 45  1  0  0  0  0
 13 46  1  0  0  0  0
 13 47  1  0  0  0  0
 14 16  1  0  0  0  0
 15 16  2  0  0  0  0
 15 17  1  0  0  0  0
 15 18  1  0  0  0  0
 16 49  1  0  0  0  0
 17 22  2  0  0  0  0
 18 20  2  0  0  0  0
 19 24  2  0  0  0  0
 19 25  1  0  0  0  0
 20 51  1  0  0  0  0
 21 23  1  0  0  0  0
 21 26  2  0  0  0  0
 21 27  1  0  0  0  0
 22 28  1  0  0  0  0
 22 32  1  0  0  0  0
 23 29  1  0  0  0  0
 23 52  1  0  0  0  0
 23 53  1  0  0  0  0
 24 26  1  0  0  0  0
 24 54  1  0  0  0  0
 25 27  2  0  0  0  0
 25 55  1  0  0  0  0
 26 56  1  0  0  0  0
 27 57  1  0  0  0  0
 28 58  1  0  0  0  0
 29 30  2  0  0  0  0
 29 31  1  0  0  0  0
 30 33  1  0  0  0  0
 30 59  1  0  0  0  0
 31 34  2  0  0  0  0
 31 60  1  0  0  0  0
 33 35  2  0  0  0  0
 33 61  1  0  0  0  0
 34 35  1  0  0  0  0
 34 62  1  0  0  0  0
 35 63  1  0  0  0  0
M  END
> <PUBCHEM_COMPOUND_CID>
11496376

> <PUBCHEM_CONFORMER_RMSD>
1

> <PUBCHEM_CONFORMER_DIVERSEORDER>
1
42
165
163
185
157
169
195
224
205
72
9
2
180
39
255
206
21
110
117
91
14
218
136
55
244
223
171
256
83
237
49
102
231
236
155
87
22
109
177
63
168
122
208
259
254
258
241
62
152
114
245
196
153
201
225
193
60
8
248
6
146
147
182
242
238
123
50
126
229
53
162
65
197
173
108
221
57
81
175
226
166
73
247
52
7
252
131
251
199
37
119
203
232
75
106
25
183
3
246
115
253
150
194
11
207
86
76
113
142
161
222
181
160
202
227
94
235
219
178
209
67
191
154
144
127
95
71
143
192
68
230
77
16
69
43
17
164
135
200
129
12
215
239
70
121
140
149
228
145
120
35
118
137
257
151
85
101
105
107
172
156
56
141
233
112
148
128
250
189
93
130
46
54
249
158
187
92
51
89
188
82
116
80
88
134
176
133
125
10
124
30
167
104
36
90
190
98
184
28
15
100
210
214
31
211
159
24
220
61
29
23
18
84
111
186
45
66
217
20
243
38
198
213
5
97
216
40
59
103
78
19
74
240
132
27
234
212
48
204
170
138
13
64
44
34
4
96
174
47
58
179
139
41
79
99
26
33
32

> <PUBCHEM_MMFF94_PARTIAL_CHARGES>
48
1 -0.56
10 0.27
11 0.28
12 0.28
13 0.37
14 0.41
16 -0.15
17 0.1
18 0.31
19 0.1
2 -0.81
20 0.16
21 -0.14
22 0.07
23 0.29
24 -0.15
25 -0.15
26 -0.15
27 -0.15
28 0.16
29 -0.14
3 -0.87
30 -0.15
31 -0.15
32 0.48
33 -0.15
34 -0.15
35 -0.15
4 -0.62
48 0.4
49 0.15
5 -0.6
50 0.4
51 0.15
54 0.15
55 0.15
56 0.15
57 0.15
58 0.15
59 0.15
6 -0.62
60 0.15
61 0.15
62 0.15
63 0.15
7 -0.56
8 0.27
9 0.27

> <PUBCHEM_EFFECTIVE_ROTOR_COUNT>
9.2

> <PUBCHEM_PHARMACOPHORE_FEATURES>
13
1 1 acceptor
1 2 cation
1 3 donor
1 5 cation
1 5 donor
1 6 acceptor
1 7 acceptor
3 3 4 14 cation
6 1 2 8 9 11 12 rings
6 19 21 24 25 26 27 rings
6 29 30 31 33 34 35 rings
6 4 14 15 16 18 20 rings
6 6 15 17 18 22 28 rings

> <PUBCHEM_HEAVY_ATOM_COUNT>
35

> <PUBCHEM_ATOM_DEF_STEREO_COUNT>
0

> <PUBCHEM_ATOM_UDEF_STEREO_COUNT>
0

> <PUBCHEM_BOND_DEF_STEREO_COUNT>
0

> <PUBCHEM_BOND_UDEF_STEREO_COUNT>
0

> <PUBCHEM_ISOTOPIC_ATOM_COUNT>
0

> <PUBCHEM_COMPONENT_COUNT>
1

> <PUBCHEM_CACTVS_TAUTO_COUNT>
6

> <PUBCHEM_CONFORMER_ID>
00AF6BB800000001

> <PUBCHEM_MMFF94_ENERGY>
116.6164

> <PUBCHEM_FEATURE_SELFOVERLAP>
66.004

> <PUBCHEM_SHAPE_FINGERPRINT>
10771551 21 18193822971849999294
12202916 173 15393972927107527758
12522641 126 18338504336217022671
14117953 113 17981045206669278949
14394314 77 18268711602012121352
14415361 192 17243844680421400178
15160629 57 18122640357598209793
15322534 239 18050852414117135990
15351339 4 18196368345757803274
15961568 22 18125437506004106150
17627616 140 18410014372725566902
19958102 18 18049712220823084669
20642791 178 18198629835450264281
21792938 131 18125145285715416779
437795 70 18056231071198987486
45266715 3 17264660982603599117
474144 1 18410858759037838614
50080093 196 18263364699063939482
57676310 188 18335703884369436676
6608658 132 17977117764558354838

> <PUBCHEM_SHAPE_MULTIPOLES>
684.53
13.2
8.5
1.62
1.23
6.67
-0.23
-1.29
-2.01
-10.45
0.92
-0.52
-0.76
-5.99

> <PUBCHEM_SHAPE_SELFOVERLAP>
1490.054

> <PUBCHEM_SHAPE_VOLUME>
367.6

> <PUBCHEM_COORDINATE_TYPE>
2
5
10

$$$$
