49830485
  -OEChem-10052115183D

 48 50  0     1  0  0  0  0  0999 V2000
    6.4608   -1.2743    1.5003 O   0  0  0  0  0  0  0  0  0  0  0  0
    0.7367    2.8564    1.1131 O   0  0  0  0  0  0  0  0  0  0  0  0
    1.5402    1.1958   -0.2916 N   0  0  0  0  0  0  0  0  0  0  0  0
   -7.3129   -1.3686   -0.1172 N   0  0  0  0  0  0  0  0  0  0  0  0
    2.9219    1.6196   -0.2794 C   0  0  1  0  0  0  0  0  0  0  0  0
    3.8641    0.4436   -0.4207 C   0  0  0  0  0  0  0  0  0  0  0  0
    3.1533    2.6875   -1.3465 C   0  0  0  0  0  0  0  0  0  0  0  0
   -0.8133    1.2857    0.3204 C   0  0  0  0  0  0  0  0  0  0  0  0
   -2.2630   -0.6167   -0.0216 C   0  0  0  0  0  0  0  0  0  0  0  0
   -3.3789    0.2047    0.1403 C   0  0  0  0  0  0  0  0  0  0  0  0
    0.5239    1.8498    0.4144 C   0  0  0  0  0  0  0  0  0  0  0  0
   -0.9802   -0.0760    0.0685 C   0  0  0  0  0  0  0  0  0  0  0  0
    4.7384    0.1219    0.6175 C   0  0  0  0  0  0  0  0  0  0  0  0
    3.8587   -0.3181   -1.5893 C   0  0  0  0  0  0  0  0  0  0  0  0
   -1.9292    2.1070    0.4822 C   0  0  0  0  0  0  0  0  0  0  0  0
   -3.2119    1.5664    0.3919 C   0  0  0  0  0  0  0  0  0  0  0  0
   -4.7222   -0.3324    0.0519 C   0  0  0  0  0  0  0  0  0  0  0  0
    5.6072   -0.9616    0.4874 C   0  0  0  0  0  0  0  0  0  0  0  0
   -2.4030   -2.0805   -0.2923 C   0  0  0  0  0  0  0  0  0  0  0  0
    4.7277   -1.4015   -1.7196 C   0  0  0  0  0  0  0  0  0  0  0  0
    5.6018   -1.7234   -0.6813 C   0  0  0  0  0  0  0  0  0  0  0  0
   -5.3798   -0.3716   -1.1727 C   0  0  0  0  0  0  0  0  0  0  0  0
   -5.3585   -0.8108    1.1920 C   0  0  0  0  0  0  0  0  0  0  0  0
   -6.6624   -0.8947   -1.2036 C   0  0  0  0  0  0  0  0  0  0  0  0
   -6.6421   -1.3143    1.0553 C   0  0  0  0  0  0  0  0  0  0  0  0
    7.3228   -2.3938    1.3005 C   0  0  0  0  0  0  0  0  0  0  0  0
    3.1040    2.0979    0.6918 H   0  0  0  0  0  0  0  0  0  0  0  0
    1.2984    0.4333   -0.9161 H   0  0  0  0  0  0  0  0  0  0  0  0
    2.9081    2.3245   -2.3509 H   0  0  0  0  0  0  0  0  0  0  0  0
    2.5247    3.5658   -1.1608 H   0  0  0  0  0  0  0  0  0  0  0  0
    4.1980    3.0173   -1.3535 H   0  0  0  0  0  0  0  0  0  0  0  0
   -0.1263   -0.7409   -0.0294 H   0  0  0  0  0  0  0  0  0  0  0  0
    4.7502    0.7094    1.5322 H   0  0  0  0  0  0  0  0  0  0  0  0
    3.1829   -0.0863   -2.4079 H   0  0  0  0  0  0  0  0  0  0  0  0
   -1.8201    3.1712    0.6746 H   0  0  0  0  0  0  0  0  0  0  0  0
   -4.0701    2.2222    0.5198 H   0  0  0  0  0  0  0  0  0  0  0  0
   -2.9227   -2.5793    0.5322 H   0  0  0  0  0  0  0  0  0  0  0  0
   -2.9482   -2.2523   -1.2260 H   0  0  0  0  0  0  0  0  0  0  0  0
   -1.4285   -2.5701   -0.3982 H   0  0  0  0  0  0  0  0  0  0  0  0
    4.7222   -1.9945   -2.6296 H   0  0  0  0  0  0  0  0  0  0  0  0
    6.2493   -2.5773   -0.8487 H   0  0  0  0  0  0  0  0  0  0  0  0
   -4.9166   -0.0084   -2.0845 H   0  0  0  0  0  0  0  0  0  0  0  0
   -4.8783   -0.7977    2.1652 H   0  0  0  0  0  0  0  0  0  0  0  0
   -7.2183   -0.9478   -2.1339 H   0  0  0  0  0  0  0  0  0  0  0  0
   -7.1818   -1.6998    1.9140 H   0  0  0  0  0  0  0  0  0  0  0  0
    6.7551   -3.3238    1.1887 H   0  0  0  0  0  0  0  0  0  0  0  0
    8.0133   -2.2262    0.4670 H   0  0  0  0  0  0  0  0  0  0  0  0
    7.9320   -2.4979    2.2043 H   0  0  0  0  0  0  0  0  0  0  0  0
  1 18  1  0  0  0  0
  1 26  1  0  0  0  0
  2 11  2  0  0  0  0
  3  5  1  0  0  0  0
  3 11  1  0  0  0  0
  3 28  1  0  0  0  0
  4 24  2  0  0  0  0
  4 25  1  0  0  0  0
  5  6  1  0  0  0  0
  5  7  1  0  0  0  0
  5 27  1  0  0  0  0
  6 13  2  0  0  0  0
  6 14  1  0  0  0  0
  7 29  1  0  0  0  0
  7 30  1  0  0  0  0
  7 31  1  0  0  0  0
  8 11  1  0  0  0  0
  8 12  2  0  0  0  0
  8 15  1  0  0  0  0
  9 10  2  0  0  0  0
  9 12  1  0  0  0  0
  9 19  1  0  0  0  0
 10 16  1  0  0  0  0
 10 17  1  0  0  0  0
 12 32  1  0  0  0  0
 13 18  1  0  0  0  0
 13 33  1  0  0  0  0
 14 20  2  0  0  0  0
 14 34  1  0  0  0  0
 15 16  2  0  0  0  0
 15 35  1  0  0  0  0
 16 36  1  0  0  0  0
 17 22  2  0  0  0  0
 17 23  1  0  0  0  0
 18 21  2  0  0  0  0
 19 37  1  0  0  0  0
 19 38  1  0  0  0  0
 19 39  1  0  0  0  0
 20 21  1  0  0  0  0
 20 40  1  0  0  0  0
 21 41  1  0  0  0  0
 22 24  1  0  0  0  0
 22 42  1  0  0  0  0
 23 25  2  0  0  0  0
 23 43  1  0  0  0  0
 24 44  1  0  0  0  0
 25 45  1  0  0  0  0
 26 46  1  0  0  0  0
 26 47  1  0  0  0  0
 26 48  1  0  0  0  0
M  END
> <PUBCHEM_COMPOUND_CID>
49830485

> <PUBCHEM_CONFORMER_RMSD>
0.8

> <PUBCHEM_CONFORMER_DIVERSEORDER>
8
75
76
40
71
89
95
25
39
66
55
59
19
94
52
13
12
44
11
69
81
90
96
17
27
10
93
67
65
73
70
47
32
58
46
48
88
60
77
98
43
82
16
56
97
50
20
80
53
92
91
54
42
51
38
57
41
26
33
23
5
68
14
83
24
4
37
62
74
28
84
61
7
22
87
45
79
15
30
86
49
21
64
34
72
2
3
31
9
78
29
6
1
85
35
18
63
36

> <PUBCHEM_MMFF94_PARTIAL_CHARGES>
35
1 -0.36
11 0.54
12 -0.15
13 -0.15
14 -0.15
15 -0.15
16 -0.15
18 0.08
19 0.14
2 -0.57
20 -0.15
21 -0.15
22 -0.15
23 -0.15
24 0.16
25 0.16
26 0.28
28 0.37
3 -0.73
32 0.15
33 0.15
34 0.15
35 0.15
36 0.15
4 -0.62
40 0.15
41 0.15
42 0.15
43 0.15
44 0.15
45 0.15
5 0.44
6 -0.14
8 0.09
9 -0.14

> <PUBCHEM_EFFECTIVE_ROTOR_COUNT>
6

> <PUBCHEM_PHARMACOPHORE_FEATURES>
7
1 1 acceptor
1 2 acceptor
1 3 donor
1 4 acceptor
6 4 17 22 23 24 25 rings
6 6 13 14 18 20 21 rings
6 8 9 10 12 15 16 rings

> <PUBCHEM_HEAVY_ATOM_COUNT>
26

> <PUBCHEM_ATOM_DEF_STEREO_COUNT>
0

> <PUBCHEM_ATOM_UDEF_STEREO_COUNT>
1

> <PUBCHEM_BOND_DEF_STEREO_COUNT>
0

> <PUBCHEM_BOND_UDEF_STEREO_COUNT>
0

> <PUBCHEM_ISOTOPIC_ATOM_COUNT>
0

> <PUBCHEM_COMPONENT_COUNT>
1

> <PUBCHEM_CACTVS_TAUTO_COUNT>
2

> <PUBCHEM_CONFORMER_ID>
02F85A5500000008

> <PUBCHEM_MMFF94_ENERGY>
88.5131

> <PUBCHEM_FEATURE_SELFOVERLAP>
35.522

> <PUBCHEM_SHAPE_FINGERPRINT>
10 15 12391511997097971415
10753850 27 18335137579392117720
12166972 35 17967537882368269900
12516196 113 17847062185836702576
12760667 363 18343305868623546257
12838863 1 18337662036800226170
13533116 47 18271811262751042836
13551218 46 18131077030344565159
13685833 64 18412827992710201960
13782708 43 18260832656981579523
13862211 1 18342458162391134655
14040221 8 16589407732619804687
14118638 360 18336274517392187964
14347332 77 18413393124903213733
14528608 73 12252183008659851217
15183329 4 18271251611722440607
15188451 53 18341888567975665376
15326921 28 16699795354459084905
15510800 12 18340217314671006742
17857418 61 18273497896523908501
18335252 98 17679032736105698409
1979834 28 17275113808163866806
20028762 73 18343019965615454574
2026 5 18187641388898811467
20403669 9 18343871008746570614
21033648 29 12894810112218747337
21267235 1 18412554205614194246
21315763 87 17060619992847986462
21315764 119 16515683329671063483
21682296 61 18341338864134057423
21781051 124 17822304534507775011
21792934 111 18131348597090635281
22061861 79 18113617915234866917
2303208 19 17604439612630384977
23081809 10 18202013161409339281
23522609 53 17911836671225829633
23559900 14 18115306812450975985
23569943 247 18411982447543562963
3004659 81 18410584998012308876
312425 54 16630813201058643591
3383291 50 18412826889078719755
3472631 163 11097861795664800280
34797466 226 17023752371947824557
3504750 166 17346323653198979853
397830 11 13110959872975599605
406291 66 18115862998227130282
4149490 64 17604713408258571520
439807 62 18187086148083761523
46194498 28 17749389316762290804
463206 1 18130786819024982287
5104073 3 18201727257609489617
559249 180 18335136436582897705
5718773 13 18261669269376801802
59682541 52 14490473050566865914
6138700 20 18409165498499375627
6438161 24 18333724732345949362
8988823 20 17203326753899817560

> <PUBCHEM_SHAPE_MULTIPOLES>
513.37
20.2
2.66
1.36
1.66
1.08
0.2
-16.37
-1.66
-2.34
-0.27
-1.06
-0.31
-1.2

> <PUBCHEM_SHAPE_SELFOVERLAP>
1110.512

> <PUBCHEM_SHAPE_VOLUME>
281.1

> <PUBCHEM_COORDINATE_TYPE>
2
5
10

$$$$
