20261448
  -OEChem-10052120443D

 43 46  0     1  0  0  0  0  0999 V2000
   -3.7350    2.2752   -0.3151 S   0  0  0  0  0  0  0  0  0  0  0  0
    2.4531   -2.8860    0.2292 F   0  0  0  0  0  0  0  0  0  0  0  0
   -2.5553   -2.6658    0.3117 O   0  0  0  0  0  0  0  0  0  0  0  0
   -4.9300   -1.5440   -0.9446 O   0  0  0  0  0  0  0  0  0  0  0  0
   -5.4017   -0.2580    0.8867 O   0  0  0  0  0  0  0  0  0  0  0  0
    3.3067   -0.2770   -0.0847 N   0  0  3  0  0  0  0  0  0  0  0  0
   -1.3455    1.1656   -0.1618 N   0  0  0  0  0  0  0  0  0  0  0  0
    6.2150    1.8857    0.2486 N   0  0  0  0  0  0  0  0  0  0  0  0
    5.3912    0.6987    0.3978 C   0  0  1  0  0  0  0  0  0  0  0  0
    3.8863    0.9896    0.3627 C   0  0  0  0  0  0  0  0  0  0  0  0
    5.5658   -0.2948   -0.7455 C   0  0  0  0  0  0  0  0  0  0  0  0
    4.3282   -1.1822   -0.6096 C   0  0  0  0  0  0  0  0  0  0  0  0
   -1.0460    2.6077   -0.2321 C   0  0  1  0  0  0  0  0  0  0  0  0
    1.9632   -0.5785   -0.0244 C   0  0  0  0  0  0  0  0  0  0  0  0
   -0.3604    0.1785   -0.0654 C   0  0  0  0  0  0  0  0  0  0  0  0
   -2.7038    0.8538   -0.1254 C   0  0  0  0  0  0  0  0  0  0  0  0
   -2.2987    3.2828   -0.8317 C   0  0  0  0  0  0  0  0  0  0  0  0
    1.0169    0.4465   -0.1239 C   0  0  0  0  0  0  0  0  0  0  0  0
   -0.7502   -1.1654    0.0922 C   0  0  0  0  0  0  0  0  0  0  0  0
    1.5529   -1.8973    0.1339 C   0  0  0  0  0  0  0  0  0  0  0  0
   -3.1899   -0.3943    0.0265 C   0  0  0  0  0  0  0  0  0  0  0  0
   -0.7334    3.1634    1.1605 C   0  0  0  0  0  0  0  0  0  0  0  0
    0.1953   -2.1954    0.1925 C   0  0  0  0  0  0  0  0  0  0  0  0
   -2.1938   -1.5045    0.1576 C   0  0  0  0  0  0  0  0  0  0  0  0
   -4.6307   -0.7041    0.0641 C   0  0  0  0  0  0  0  0  0  0  0  0
    5.6411    0.2030    1.3451 H   0  0  0  0  0  0  0  0  0  0  0  0
    3.5225    1.2880    1.3524 H   0  0  0  0  0  0  0  0  0  0  0  0
    3.6553    1.7823   -0.3594 H   0  0  0  0  0  0  0  0  0  0  0  0
    6.4971   -0.8657   -0.6805 H   0  0  0  0  0  0  0  0  0  0  0  0
    5.5474    0.2182   -1.7160 H   0  0  0  0  0  0  0  0  0  0  0  0
    4.0488   -1.6149   -1.5759 H   0  0  0  0  0  0  0  0  0  0  0  0
    4.5381   -1.9843    0.1065 H   0  0  0  0  0  0  0  0  0  0  0  0
   -0.2062    2.8188   -0.9045 H   0  0  0  0  0  0  0  0  0  0  0  0
   -2.4144    4.3254   -0.5221 H   0  0  0  0  0  0  0  0  0  0  0  0
   -2.2529    3.2490   -1.9259 H   0  0  0  0  0  0  0  0  0  0  0  0
    1.3584    1.4686   -0.2581 H   0  0  0  0  0  0  0  0  0  0  0  0
   -1.5539    2.9877    1.8647 H   0  0  0  0  0  0  0  0  0  0  0  0
    0.1619    2.6969    1.5834 H   0  0  0  0  0  0  0  0  0  0  0  0
   -0.5542    4.2426    1.1125 H   0  0  0  0  0  0  0  0  0  0  0  0
    7.2001    1.6269    0.2772 H   0  0  0  0  0  0  0  0  0  0  0  0
    6.0564    2.5150    1.0341 H   0  0  0  0  0  0  0  0  0  0  0  0
   -0.1075   -3.2315    0.3153 H   0  0  0  0  0  0  0  0  0  0  0  0
   -5.8822   -1.7794   -0.9595 H   0  0  0  0  0  0  0  0  0  0  0  0
  1 16  1  0  0  0  0
  1 17  1  0  0  0  0
  2 20  1  0  0  0  0
  3 24  2  0  0  0  0
  4 25  1  0  0  0  0
  4 43  1  0  0  0  0
  5 25  2  0  0  0  0
  6 10  1  0  0  0  0
  6 12  1  0  0  0  0
  6 14  1  0  0  0  0
  7 13  1  0  0  0  0
  7 15  1  0  0  0  0
  7 16  1  0  0  0  0
  8  9  1  0  0  0  0
  8 40  1  0  0  0  0
  8 41  1  0  0  0  0
  9 10  1  0  0  0  0
  9 11  1  0  0  0  0
  9 26  1  0  0  0  0
 10 27  1  0  0  0  0
 10 28  1  0  0  0  0
 11 12  1  0  0  0  0
 11 29  1  0  0  0  0
 11 30  1  0  0  0  0
 12 31  1  0  0  0  0
 12 32  1  0  0  0  0
 13 17  1  0  0  0  0
 13 22  1  0  0  0  0
 13 33  1  0  0  0  0
 14 18  1  0  0  0  0
 14 20  2  0  0  0  0
 15 18  2  0  0  0  0
 15 19  1  0  0  0  0
 16 21  2  0  0  0  0
 17 34  1  0  0  0  0
 17 35  1  0  0  0  0
 18 36  1  0  0  0  0
 19 23  2  0  0  0  0
 19 24  1  0  0  0  0
 20 23  1  0  0  0  0
 21 24  1  0  0  0  0
 21 25  1  0  0  0  0
 22 37  1  0  0  0  0
 22 38  1  0  0  0  0
 22 39  1  0  0  0  0
 23 42  1  0  0  0  0
M  END
> <PUBCHEM_COMPOUND_CID>
20261448

> <PUBCHEM_CONFORMER_RMSD>
0.8

> <PUBCHEM_CONFORMER_DIVERSEORDER>
2
3
1
4

> <PUBCHEM_MMFF94_PARTIAL_CHARGES>
28
1 -0.33
10 0.37
12 0.37
13 0.37
14 0.1
15 0.1
16 0.2
17 0.23
18 -0.15
19 0.09
2 -0.19
20 0.19
21 0.03
23 -0.15
24 0.47
25 0.71
3 -0.57
36 0.15
4 -0.65
40 0.36
41 0.36
42 0.15
43 0.5
5 -0.57
6 -0.84
7 -0.57
8 -0.99
9 0.27

> <PUBCHEM_EFFECTIVE_ROTOR_COUNT>
3.6

> <PUBCHEM_PHARMACOPHORE_FEATURES>
12
1 3 acceptor
1 4 acceptor
1 5 acceptor
1 6 cation
1 7 cation
1 8 cation
1 8 donor
3 4 5 25 anion
5 1 7 13 16 17 rings
5 6 9 10 11 12 rings
6 14 15 18 19 20 23 rings
6 7 15 16 19 21 24 rings

> <PUBCHEM_HEAVY_ATOM_COUNT>
25

> <PUBCHEM_ATOM_DEF_STEREO_COUNT>
0

> <PUBCHEM_ATOM_UDEF_STEREO_COUNT>
2

> <PUBCHEM_BOND_DEF_STEREO_COUNT>
0

> <PUBCHEM_BOND_UDEF_STEREO_COUNT>
0

> <PUBCHEM_ISOTOPIC_ATOM_COUNT>
0

> <PUBCHEM_COMPONENT_COUNT>
1

> <PUBCHEM_CACTVS_TAUTO_COUNT>
1

> <PUBCHEM_CONFORMER_ID>
01352A4800000002

> <PUBCHEM_MMFF94_ENERGY>
85.4102

> <PUBCHEM_FEATURE_SELFOVERLAP>
61.037

> <PUBCHEM_SHAPE_FINGERPRINT>
10090160 65 18186799209845476566
10319926 262 18338498765633455562
10411042 1 17976541937913314603
10498660 4 18337952290504862772
10670039 82 18188224126145457956
10906281 52 18263663881493867883
10967382 1 18409730698815095923
1100329 8 18264773349140718187
11112241 14 16627683007376577704
11578080 2 17024857165704600783
11595378 159 17895177901585219200
12107183 9 17612299759111642890
12236239 1 17458060473967126722
12390115 104 18270132196794702265
12403259 415 18343861113485084800
12553582 1 18410001166017590747
12788726 201 18333726892877848139
12838862 33 18337091437662316813
12916748 109 18408325493116679090
13140716 1 18121787398535730097
13402501 40 18342454885215472296
14765038 42 18200893785399616393
14787075 74 18410572915709914745
14790565 3 18338805614317348088
15196674 1 18337390431156467622
16087824 20 18409727349821832143
17349148 13 17748835098350209228
17492 89 18192711150756301187
19591789 44 18267583683380803041
20510252 161 18339643326519019033
21029758 11 18413102884077171085
21236236 1 18411982442567495925
21267235 1 18336838549386665023
21279426 13 18268149756514070086
21315764 268 18408314502543814692
21641784 216 18114477681477386285
22122407 14 15140971651287490486
221357 26 18273501156936719102
22393880 68 18265901246481887742
2297311 6 18341906181515240212
23352939 185 18131073765795056033
23402539 116 18341890805706478327
23557571 272 18342465819953937308
23559900 14 18339636858092926072
2748010 2 17759805141205039399
283562 15 18409729539142219281
335352 9 18410292549831688439
34934 24 18410288129709596851
350125 39 18265335015157666642
4214541 1 18338235968947301004
469060 322 18189353341261059841
5104073 3 18189619345385288194
5486654 2 18409171047122309990
59755656 215 18409730638369224870
9709674 26 18339367357506285150
9981440 41 18187365411126272874

> <PUBCHEM_SHAPE_MULTIPOLES>
478.51
11.56
3.45
0.81
10.48
1.33
0.01
1.02
-0.55
-1.93
0.16
-0.14
0.23
0.57

> <PUBCHEM_SHAPE_SELFOVERLAP>
1038.074

> <PUBCHEM_SHAPE_VOLUME>
267

> <PUBCHEM_COORDINATE_TYPE>
2
5
10

$$$$
