24952854
  -OEChem-10052115183D

 49 53  0     0  0  0  0  0  0999 V2000
   -5.4338    1.4243   -1.0107 S   0  0  0  0  0  0  0  0  0  0  0  0
    0.6575   -5.1829    1.0783 F   0  0  0  0  0  0  0  0  0  0  0  0
    3.0096    1.2722   -0.4970 N   0  0  0  0  0  0  0  0  0  0  0  0
   -2.9690    1.4168   -0.3018 N   0  0  0  0  0  0  0  0  0  0  0  0
    3.1967    2.6620    1.2273 N   0  0  0  0  0  0  0  0  0  0  0  0
   -3.6873   -0.6963   -0.3995 N   0  0  0  0  0  0  0  0  0  0  0  0
    5.1631    2.0932   -0.0326 N   0  0  0  0  0  0  0  0  0  0  0  0
    3.3822    0.4597   -1.6344 C   0  0  0  0  0  0  0  0  0  0  0  0
    2.9899   -1.0244   -1.4952 C   0  0  0  0  0  0  0  0  0  0  0  0
    1.7415    1.4004    0.0090 C   0  0  0  0  0  0  0  0  0  0  0  0
    1.8846    2.2727    1.0844 C   0  0  0  0  0  0  0  0  0  0  0  0
   -0.5986    1.2046    0.3905 C   0  0  0  0  0  0  0  0  0  0  0  0
    0.5189    0.8452   -0.3702 C   0  0  0  0  0  0  0  0  0  0  0  0
   -1.8915    0.6617    0.0468 C   0  0  0  0  0  0  0  0  0  0  0  0
    3.8427    2.0442    0.2639 C   0  0  0  0  0  0  0  0  0  0  0  0
    3.6494   -1.6811   -0.2798 C   0  0  0  0  0  0  0  0  0  0  0  0
    3.3787   -1.7846   -2.7657 C   0  0  0  0  0  0  0  0  0  0  0  0
   -0.4866    2.0777    1.4752 C   0  0  0  0  0  0  0  0  0  0  0  0
    0.7514    2.6231    1.8376 C   0  0  0  0  0  0  0  0  0  0  0  0
   -2.3587   -0.6409   -0.0205 C   0  0  0  0  0  0  0  0  0  0  0  0
   -3.9977    0.5609   -0.5532 C   0  0  0  0  0  0  0  0  0  0  0  0
   -1.5820   -1.8111    0.2629 C   0  0  0  0  0  0  0  0  0  0  0  0
   -3.2566    2.7525   -0.4532 C   0  0  0  0  0  0  0  0  0  0  0  0
   -4.5328    2.9404   -0.8299 C   0  0  0  0  0  0  0  0  0  0  0  0
   -1.0131   -1.9822    1.5250 C   0  0  0  0  0  0  0  0  0  0  0  0
   -1.3946   -2.7794   -0.7235 C   0  0  0  0  0  0  0  0  0  0  0  0
   -0.2566   -3.1212    1.8006 C   0  0  0  0  0  0  0  0  0  0  0  0
   -0.6381   -3.9184   -0.4481 C   0  0  0  0  0  0  0  0  0  0  0  0
   -0.0692   -4.0893    0.8140 C   0  0  0  0  0  0  0  0  0  0  0  0
    4.4506    0.5360   -1.8403 H   0  0  0  0  0  0  0  0  0  0  0  0
    2.8690    0.8993   -2.4994 H   0  0  0  0  0  0  0  0  0  0  0  0
    1.9126   -1.1501   -1.3838 H   0  0  0  0  0  0  0  0  0  0  0  0
    0.4151    0.2143   -1.2441 H   0  0  0  0  0  0  0  0  0  0  0  0
    4.7401   -1.5907   -0.3241 H   0  0  0  0  0  0  0  0  0  0  0  0
    3.3078   -1.2267    0.6553 H   0  0  0  0  0  0  0  0  0  0  0  0
    3.4014   -2.7471   -0.2328 H   0  0  0  0  0  0  0  0  0  0  0  0
    4.4604   -1.7509   -2.9352 H   0  0  0  0  0  0  0  0  0  0  0  0
    3.0801   -2.8362   -2.6975 H   0  0  0  0  0  0  0  0  0  0  0  0
    2.8834   -1.3538   -3.6423 H   0  0  0  0  0  0  0  0  0  0  0  0
   -1.3600    2.3455    2.0668 H   0  0  0  0  0  0  0  0  0  0  0  0
    0.8284    3.2990    2.6831 H   0  0  0  0  0  0  0  0  0  0  0  0
   -2.5155    3.5185   -0.2836 H   0  0  0  0  0  0  0  0  0  0  0  0
    5.7916    2.6641    0.5245 H   0  0  0  0  0  0  0  0  0  0  0  0
    5.6135    1.5918   -0.7881 H   0  0  0  0  0  0  0  0  0  0  0  0
   -4.9940    3.9005   -1.0138 H   0  0  0  0  0  0  0  0  0  0  0  0
   -1.1532   -1.2446    2.3116 H   0  0  0  0  0  0  0  0  0  0  0  0
   -1.8290   -2.6609   -1.7134 H   0  0  0  0  0  0  0  0  0  0  0  0
    0.1855   -3.2553    2.7833 H   0  0  0  0  0  0  0  0  0  0  0  0
   -0.4909   -4.6719   -1.2162 H   0  0  0  0  0  0  0  0  0  0  0  0
  1 21  1  0  0  0  0
  1 24  1  0  0  0  0
  2 29  1  0  0  0  0
  3  8  1  0  0  0  0
  3 10  1  0  0  0  0
  3 15  1  0  0  0  0
  4 14  1  0  0  0  0
  4 21  1  0  0  0  0
  4 23  1  0  0  0  0
  5 11  1  0  0  0  0
  5 15  2  0  0  0  0
  6 20  1  0  0  0  0
  6 21  2  0  0  0  0
  7 15  1  0  0  0  0
  7 43  1  0  0  0  0
  7 44  1  0  0  0  0
  8  9  1  0  0  0  0
  8 30  1  0  0  0  0
  8 31  1  0  0  0  0
  9 16  1  0  0  0  0
  9 17  1  0  0  0  0
  9 32  1  0  0  0  0
 10 11  2  0  0  0  0
 10 13  1  0  0  0  0
 11 19  1  0  0  0  0
 12 13  2  0  0  0  0
 12 14  1  0  0  0  0
 12 18  1  0  0  0  0
 13 33  1  0  0  0  0
 14 20  2  0  0  0  0
 16 34  1  0  0  0  0
 16 35  1  0  0  0  0
 16 36  1  0  0  0  0
 17 37  1  0  0  0  0
 17 38  1  0  0  0  0
 17 39  1  0  0  0  0
 18 19  2  0  0  0  0
 18 40  1  0  0  0  0
 19 41  1  0  0  0  0
 20 22  1  0  0  0  0
 22 25  2  0  0  0  0
 22 26  1  0  0  0  0
 23 24  2  0  0  0  0
 23 42  1  0  0  0  0
 24 45  1  0  0  0  0
 25 27  1  0  0  0  0
 25 46  1  0  0  0  0
 26 28  2  0  0  0  0
 26 47  1  0  0  0  0
 27 29  2  0  0  0  0
 27 48  1  0  0  0  0
 28 29  1  0  0  0  0
 28 49  1  0  0  0  0
M  END
> <PUBCHEM_COMPOUND_CID>
24952854

> <PUBCHEM_CONFORMER_RMSD>
0.8

> <PUBCHEM_CONFORMER_DIVERSEORDER>
1
16
10
15
7
8
14
3
13
9
12
4
5
2
6
11

> <PUBCHEM_MMFF94_PARTIAL_CHARGES>
37
1 -0.16
10 -0.15
11 0.23
12 0.05
13 -0.15
14 -0.2
15 0.27
18 -0.15
19 -0.15
2 -0.19
20 0.17
21 0.24
22 0.05
23 -0.18
24 -0.05
25 -0.15
26 -0.15
27 -0.15
28 -0.15
29 0.19
3 0.05
33 0.15
4 0.33
40 0.15
41 0.15
42 0.15
43 0.4
44 0.4
45 0.15
46 0.15
47 0.15
48 0.15
49 0.15
5 -0.57
6 -0.57
7 -0.88
8 0.26

> <PUBCHEM_EFFECTIVE_ROTOR_COUNT>
4

> <PUBCHEM_PHARMACOPHORE_FEATURES>
9
1 7 donor
3 4 6 21 cation
3 9 16 17 hydrophobe
4 3 5 7 15 cation
5 1 4 21 23 24 rings
5 3 5 10 11 15 rings
5 4 6 14 20 21 rings
6 10 11 12 13 18 19 rings
6 22 25 26 27 28 29 rings

> <PUBCHEM_HEAVY_ATOM_COUNT>
29

> <PUBCHEM_ATOM_DEF_STEREO_COUNT>
0

> <PUBCHEM_ATOM_UDEF_STEREO_COUNT>
0

> <PUBCHEM_BOND_DEF_STEREO_COUNT>
0

> <PUBCHEM_BOND_UDEF_STEREO_COUNT>
0

> <PUBCHEM_ISOTOPIC_ATOM_COUNT>
0

> <PUBCHEM_COMPONENT_COUNT>
1

> <PUBCHEM_CACTVS_TAUTO_COUNT>
2

> <PUBCHEM_CONFORMER_ID>
017CC01600000001

> <PUBCHEM_MMFF94_ENERGY>
71.9019

> <PUBCHEM_FEATURE_SELFOVERLAP>
46.032

> <PUBCHEM_SHAPE_FINGERPRINT>
10675989 125 18268710502633024696
107951 10 18410290358659986623
1100329 8 18339071584641455426
11370993 70 18408319994994395380
11582403 64 16335758250838821057
12035759 4 17910961236277385281
12156800 1 14350558898319671710
12788726 201 17463424063306885267
13140716 1 18339936912992261737
13402501 40 18055077828596712702
13617811 41 18114744962357258173
140371 6 18201444739219898616
14114211 68 17828519914414021143
14251757 17 18344149193730879037
14931854 50 18196104235170327918
14955137 171 17115798713980277105
15463212 79 17968925530372405145
19591789 44 18410853274675714467
21133410 230 17536640362281279779
22393880 68 18339917100957257805
23366157 5 17826220806046987113
23559900 14 18272932730710818732
3298306 158 18264487295866137087
508706 21 18124038090116419478
5265222 85 18334585663436767292
5309563 4 16968580175156121730
57527295 17 17774995787264030557
6669772 16 18412256229368078590
81228 2 17761771072206119995
9709674 26 18270684302060839084
9925002 15 16827282433896157178

> <PUBCHEM_SHAPE_MULTIPOLES>
568.48
8.47
5.57
1.74
2.97
6.14
-0.24
-6.94
-4.68
-1.35
2.26
-1.27
0.48
1.75

> <PUBCHEM_SHAPE_SELFOVERLAP>
1262.788

> <PUBCHEM_SHAPE_VOLUME>
312.1

> <PUBCHEM_COORDINATE_TYPE>
2
5
10

$$$$
