11784520
  -OEChem-10062121573D

 54 56  0     1  0  0  0  0  0999 V2000
    4.2127   -3.0161    0.0138 Cl  0  0  0  0  0  0  0  0  0  0  0  0
    0.1242    1.0814   -1.1530 O   0  0  0  0  0  0  0  0  0  0  0  0
   -3.7513    1.7195    0.7869 O   0  0  0  0  0  0  0  0  0  0  0  0
    4.7633   -0.1397   -0.6430 O   0  0  0  0  0  0  0  0  0  0  0  0
    6.6932   -0.6323    1.3591 O   0  0  0  0  0  0  0  0  0  0  0  0
    8.4544    1.3994    2.0359 O   0  0  0  0  0  0  0  0  0  0  0  0
   -0.6393   -3.7612   -0.8313 O   0  0  0  0  0  0  0  0  0  0  0  0
   -0.6748   -1.4506   -0.5730 N   0  0  0  0  0  0  0  0  0  0  0  0
   -2.6021   -2.7876   -0.2878 N   0  0  0  0  0  0  0  0  0  0  0  0
   -3.1310   -0.4787    0.2168 N   0  0  0  0  0  0  0  0  0  0  0  0
   -5.7400   -1.2868    0.8315 N   0  0  0  0  0  0  0  0  0  0  0  0
   -7.2682    1.5974    1.6480 N   0  0  0  0  0  0  0  0  0  0  0  0
   -1.2984    3.9435   -1.0187 C   0  0  0  0  0  0  0  0  0  0  0  0
   -0.6776    3.1387   -2.1666 C   0  0  0  0  0  0  0  0  0  0  0  0
   -1.9389    3.1298    0.1033 C   0  0  0  0  0  0  0  0  0  0  0  0
    0.5399    2.3109   -1.7551 C   0  0  0  0  0  0  0  0  0  0  0  0
   -3.1158    2.2826   -0.3664 C   0  0  0  0  0  0  0  0  0  0  0  0
    1.1206    0.1691   -0.8838 C   0  0  0  0  0  0  0  0  0  0  0  0
    0.7149   -1.1510   -0.5956 C   0  0  0  0  0  0  0  0  0  0  0  0
    2.4881    0.4862   -0.8860 C   0  0  0  0  0  0  0  0  0  0  0  0
    3.4458   -0.4891   -0.6123 C   0  0  0  0  0  0  0  0  0  0  0  0
    6.6266    0.6278    0.6876 C   0  0  1  0  0  0  0  0  0  0  0  0
    5.1849    0.8793    0.2607 C   0  0  0  0  0  0  0  0  0  0  0  0
    1.6932   -2.1165   -0.3109 C   0  0  0  0  0  0  0  0  0  0  0  0
    3.0490   -1.7876   -0.3241 C   0  0  0  0  0  0  0  0  0  0  0  0
    7.1171    1.7004    1.6513 C   0  0  0  0  0  0  0  0  0  0  0  0
   -4.0828    0.3968    0.6098 C   0  0  0  0  0  0  0  0  0  0  0  0
   -1.2462   -2.7155   -0.5798 C   0  0  0  0  0  0  0  0  0  0  0  0
   -3.4983   -1.7709    0.1069 C   0  0  0  0  0  0  0  0  0  0  0  0
   -5.3574   -0.0027    0.9386 C   0  0  0  0  0  0  0  0  0  0  0  0
   -4.7963   -2.1545    0.4081 C   0  0  0  0  0  0  0  0  0  0  0  0
   -6.4094    0.8781    1.3292 C   0  0  0  0  0  0  0  0  0  0  0  0
   -0.5288    4.5929   -0.5827 H   0  0  0  0  0  0  0  0  0  0  0  0
   -2.0573    4.6142   -1.4415 H   0  0  0  0  0  0  0  0  0  0  0  0
   -1.4322    2.4999   -2.6376 H   0  0  0  0  0  0  0  0  0  0  0  0
   -0.3522    3.8616   -2.9252 H   0  0  0  0  0  0  0  0  0  0  0  0
   -1.1975    2.4939    0.6002 H   0  0  0  0  0  0  0  0  0  0  0  0
   -2.2895    3.8205    0.8813 H   0  0  0  0  0  0  0  0  0  0  0  0
    1.1170    2.0901   -2.6621 H   0  0  0  0  0  0  0  0  0  0  0  0
    1.1554    2.8912   -1.0579 H   0  0  0  0  0  0  0  0  0  0  0  0
   -3.8570    2.9153   -0.8685 H   0  0  0  0  0  0  0  0  0  0  0  0
   -2.7837    1.5289   -1.0889 H   0  0  0  0  0  0  0  0  0  0  0  0
    2.8306    1.4919   -1.1103 H   0  0  0  0  0  0  0  0  0  0  0  0
    7.2864    0.5476   -0.1827 H   0  0  0  0  0  0  0  0  0  0  0  0
    5.1058    1.8491   -0.2434 H   0  0  0  0  0  0  0  0  0  0  0  0
    4.5361    0.8883    1.1470 H   0  0  0  0  0  0  0  0  0  0  0  0
    1.4211   -3.1324   -0.0429 H   0  0  0  0  0  0  0  0  0  0  0  0
   -1.2956   -0.6497   -0.6472 H   0  0  0  0  0  0  0  0  0  0  0  0
    6.5111    1.7360    2.5628 H   0  0  0  0  0  0  0  0  0  0  0  0
    7.1082    2.6890    1.1829 H   0  0  0  0  0  0  0  0  0  0  0  0
   -2.9981   -3.7242   -0.3245 H   0  0  0  0  0  0  0  0  0  0  0  0
    6.1032   -0.5929    2.1312 H   0  0  0  0  0  0  0  0  0  0  0  0
   -5.1276   -3.1849    0.3318 H   0  0  0  0  0  0  0  0  0  0  0  0
    8.4484    0.5170    2.4446 H   0  0  0  0  0  0  0  0  0  0  0  0
  1 25  1  0  0  0  0
  2 16  1  0  0  0  0
  2 18  1  0  0  0  0
  3 17  1  0  0  0  0
  3 27  1  0  0  0  0
  4 21  1  0  0  0  0
  4 23  1  0  0  0  0
  5 22  1  0  0  0  0
  5 52  1  0  0  0  0
  6 26  1  0  0  0  0
  6 54  1  0  0  0  0
  7 28  2  0  0  0  0
  8 19  1  0  0  0  0
  8 28  1  0  0  0  0
  8 48  1  0  0  0  0
  9 28  1  0  0  0  0
  9 29  1  0  0  0  0
  9 51  1  0  0  0  0
 10 27  2  0  0  0  0
 10 29  1  0  0  0  0
 11 30  2  0  0  0  0
 11 31  1  0  0  0  0
 12 32  3  0  0  0  0
 13 14  1  0  0  0  0
 13 15  1  0  0  0  0
 13 33  1  0  0  0  0
 13 34  1  0  0  0  0
 14 16  1  0  0  0  0
 14 35  1  0  0  0  0
 14 36  1  0  0  0  0
 15 17  1  0  0  0  0
 15 37  1  0  0  0  0
 15 38  1  0  0  0  0
 16 39  1  0  0  0  0
 16 40  1  0  0  0  0
 17 41  1  0  0  0  0
 17 42  1  0  0  0  0
 18 19  1  0  0  0  0
 18 20  2  0  0  0  0
 19 24  2  0  0  0  0
 20 21  1  0  0  0  0
 20 43  1  0  0  0  0
 21 25  2  0  0  0  0
 22 23  1  0  0  0  0
 22 26  1  0  0  0  0
 22 44  1  0  0  0  0
 23 45  1  0  0  0  0
 23 46  1  0  0  0  0
 24 25  1  0  0  0  0
 24 47  1  0  0  0  0
 26 49  1  0  0  0  0
 26 50  1  0  0  0  0
 27 30  1  0  0  0  0
 29 31  2  0  0  0  0
 30 32  1  0  0  0  0
 31 53  1  0  0  0  0
M  END
> <PUBCHEM_COMPOUND_CID>
11784520

> <PUBCHEM_CONFORMER_RMSD>
0.8

> <PUBCHEM_CONFORMER_DIVERSEORDER>
1
5
90
31
70
99
18
19
12
119
140
125
105
139
26
123
23
107
73
81
20
118
89
114
68
69
40
8
101
35
113
55
51
29
128
115
98
141
117
120
17
50
111
82
124
134
13
100
36
45
2
32
145
127
53
136
28
47
133
148
77
6
103
144
86
56
135
62
10
74
71
58
95
84
43
11
22
48
83
7
110
25
85
57
102
4
121
64
44
3
137
67
108
41
49
63
142
96
109
27
75
104
52
106
15
131
88
46
65
78
33
91
16
42
66
93
39
72
130
132
138
34
116
122
147
143
112
30
9
37
126
87
24
97
38
59
129
80
21
79
14
61
94
60
146
54
76
92

> <PUBCHEM_MMFF94_PARTIAL_CHARGES>
36
1 -0.18
10 -0.62
11 -0.62
12 -0.56
16 0.28
17 0.28
18 0.08
19 0.12
2 -0.36
20 -0.15
21 0.08
22 0.28
23 0.28
24 -0.15
25 0.18
26 0.28
27 0.39
28 0.69
29 0.43
3 -0.36
30 0.38
31 0.16
32 0.48
4 -0.36
43 0.15
47 0.15
48 0.37
5 -0.68
51 0.37
52 0.4
53 0.15
54 0.4
6 -0.68
7 -0.57
8 -0.55
9 -0.55

> <PUBCHEM_EFFECTIVE_ROTOR_COUNT>
5.8

> <PUBCHEM_PHARMACOPHORE_FEATURES>
13
1 11 acceptor
1 12 acceptor
1 2 acceptor
1 4 acceptor
1 5 acceptor
1 5 donor
1 6 acceptor
1 6 donor
1 7 acceptor
1 8 donor
1 9 donor
6 10 11 27 29 30 31 rings
6 18 19 20 21 24 25 rings

> <PUBCHEM_HEAVY_ATOM_COUNT>
32

> <PUBCHEM_ATOM_DEF_STEREO_COUNT>
0

> <PUBCHEM_ATOM_UDEF_STEREO_COUNT>
1

> <PUBCHEM_BOND_DEF_STEREO_COUNT>
0

> <PUBCHEM_BOND_UDEF_STEREO_COUNT>
0

> <PUBCHEM_ISOTOPIC_ATOM_COUNT>
0

> <PUBCHEM_COMPONENT_COUNT>
1

> <PUBCHEM_CACTVS_TAUTO_COUNT>
5

> <PUBCHEM_CONFORMER_ID>
00B3D14800000001

> <PUBCHEM_MMFF94_ENERGY>
103.8584

> <PUBCHEM_FEATURE_SELFOVERLAP>
66.027

> <PUBCHEM_SHAPE_FINGERPRINT>
10 15 18411136957275983082
10838868 229 18046334238020376274
10906281 52 18042698372036228134
11595378 159 18113888334855020424
11991303 11 13973958848382268756
12838862 33 18410005517141429325
13140716 1 18119531187595635014
13540713 4 18191859034335619534
14028597 1 17240755182076319504
14117953 113 18193010236010769493
14394314 77 18341901766700894913
15082195 135 9943222884762829594
15328829 1 17386869321404951750
15629462 23 13551730908897023678
15950262 2 15984279400312284577
16110190 28 18409173237745535013
18336668 15 18114748230553057229
18608769 82 18337114471925080758
20642791 178 18191610690847431877
21033648 29 18202288021582643523
21814621 53 14707749815089539996
22113638 7 18338528529535166495
23576562 1 12535049984603529018
23845131 108 17758950429296322204
24771293 8 18342740757758243332
25019877 29 17632303427400989815
3680242 22 18190767292271792561
392239 28 18273501194837785161
474144 1 17751950096554574085
5104073 3 18264202509701587570
552612 73 18272080592414471290
57307002 19 18336825291492951117
6009941 240 15575254520200498215
653340 110 18265337213664152604

> <PUBCHEM_SHAPE_MULTIPOLES>
600.29
17.71
4.39
1.53
15.71
0.53
0.15
4.1
15.4
-2
-1.63
0.87
1.15
1.03

> <PUBCHEM_SHAPE_SELFOVERLAP>
1254.188

> <PUBCHEM_SHAPE_VOLUME>
336

> <PUBCHEM_COORDINATE_TYPE>
2
5
10

$$$$
