49830951
  -OEChem-10062121533D

 27 29  0     0  0  0  0  0  0999 V2000
   -2.9671    1.8277    1.9608 Cl  0  0  0  0  0  0  0  0  0  0  0  0
   -4.9521    0.9927   -0.4553 Cl  0  0  0  0  0  0  0  0  0  0  0  0
    0.5617   -2.8880    0.2358 N   0  0  0  0  0  0  0  0  0  0  0  0
    1.8413   -3.2893    0.3248 N   0  0  0  0  0  0  0  0  0  0  0  0
    1.1419    1.0932   -0.8152 N   0  0  0  0  0  0  0  0  0  0  0  0
    2.5412    3.0173   -0.4312 N   0  0  0  0  0  0  0  0  0  0  0  0
    0.4165   -1.5412    0.0757 C   0  0  0  0  0  0  0  0  0  0  0  0
    1.6896   -1.0258    0.0589 C   0  0  0  0  0  0  0  0  0  0  0  0
   -0.8793   -0.9180   -0.0394 C   0  0  0  0  0  0  0  0  0  0  0  0
    2.0130    0.3613   -0.0900 C   0  0  0  0  0  0  0  0  0  0  0  0
    2.5256   -2.1474    0.2161 C   0  0  0  0  0  0  0  0  0  0  0  0
   -1.2774    0.0426    0.8903 C   0  0  0  0  0  0  0  0  0  0  0  0
   -1.7349   -1.2774   -1.0807 C   0  0  0  0  0  0  0  0  0  0  0  0
   -2.5311    0.6441    0.7786 C   0  0  0  0  0  0  0  0  0  0  0  0
   -2.9886   -0.6762   -1.1923 C   0  0  0  0  0  0  0  0  0  0  0  0
    3.1542    0.8789    0.4879 C   0  0  0  0  0  0  0  0  0  0  0  0
   -3.3867    0.2846   -0.2628 C   0  0  0  0  0  0  0  0  0  0  0  0
    3.3695    2.2264    0.2821 C   0  0  0  0  0  0  0  0  0  0  0  0
    1.4628    2.3947   -0.9441 C   0  0  0  0  0  0  0  0  0  0  0  0
   -0.1637   -3.5922    0.2936 H   0  0  0  0  0  0  0  0  0  0  0  0
    3.6052   -2.1897    0.2545 H   0  0  0  0  0  0  0  0  0  0  0  0
   -0.6147    0.3196    1.7082 H   0  0  0  0  0  0  0  0  0  0  0  0
   -1.4410   -2.0218   -1.8170 H   0  0  0  0  0  0  0  0  0  0  0  0
   -3.6424   -0.9678   -2.0105 H   0  0  0  0  0  0  0  0  0  0  0  0
    3.8488    0.2901    1.0741 H   0  0  0  0  0  0  0  0  0  0  0  0
    4.2395    2.7226    0.6988 H   0  0  0  0  0  0  0  0  0  0  0  0
    0.7798    3.0059   -1.5211 H   0  0  0  0  0  0  0  0  0  0  0  0
  1 14  1  0  0  0  0
  2 17  1  0  0  0  0
  3  4  1  0  0  0  0
  3  7  1  0  0  0  0
  3 20  1  0  0  0  0
  4 11  2  0  0  0  0
  5 10  2  0  0  0  0
  5 19  1  0  0  0  0
  6 18  1  0  0  0  0
  6 19  2  0  0  0  0
  7  8  2  0  0  0  0
  7  9  1  0  0  0  0
  8 10  1  0  0  0  0
  8 11  1  0  0  0  0
  9 12  2  0  0  0  0
  9 13  1  0  0  0  0
 10 16  1  0  0  0  0
 11 21  1  0  0  0  0
 12 14  1  0  0  0  0
 12 22  1  0  0  0  0
 13 15  2  0  0  0  0
 13 23  1  0  0  0  0
 14 17  2  0  0  0  0
 15 17  1  0  0  0  0
 15 24  1  0  0  0  0
 16 18  2  0  0  0  0
 16 25  1  0  0  0  0
 18 26  1  0  0  0  0
 19 27  1  0  0  0  0
M  END
> <PUBCHEM_COMPOUND_CID>
49830951

> <PUBCHEM_CONFORMER_RMSD>
0.6

> <PUBCHEM_CONFORMER_DIVERSEORDER>
1
7
16
13
10
15
8
2
14
9
17
18
5
6
3
4
12
11

> <PUBCHEM_MMFF94_PARTIAL_CHARGES>
27
1 -0.18
10 0.36
11 0.14
12 -0.15
13 -0.15
14 0.18
15 -0.15
16 -0.15
17 0.18
18 0.16
19 0.47
2 -0.18
20 0.27
21 0.15
22 0.15
23 0.15
24 0.15
25 0.15
26 0.15
27 0.15
3 0.3
4 -0.71
5 -0.62
6 -0.62
7 -0.2
8 -0.05
9 0.05

> <PUBCHEM_EFFECTIVE_ROTOR_COUNT>
2

> <PUBCHEM_PHARMACOPHORE_FEATURES>
7
1 3 donor
1 4 acceptor
1 5 acceptor
3 5 6 19 cation
5 3 4 7 8 11 rings
6 5 6 10 16 18 19 rings
6 9 12 13 14 15 17 rings

> <PUBCHEM_HEAVY_ATOM_COUNT>
19

> <PUBCHEM_ATOM_DEF_STEREO_COUNT>
0

> <PUBCHEM_ATOM_UDEF_STEREO_COUNT>
0

> <PUBCHEM_BOND_DEF_STEREO_COUNT>
0

> <PUBCHEM_BOND_UDEF_STEREO_COUNT>
0

> <PUBCHEM_ISOTOPIC_ATOM_COUNT>
0

> <PUBCHEM_COMPONENT_COUNT>
1

> <PUBCHEM_CACTVS_TAUTO_COUNT>
5

> <PUBCHEM_CONFORMER_ID>
02F85C2700000001

> <PUBCHEM_MMFF94_ENERGY>
45.3282

> <PUBCHEM_FEATURE_SELFOVERLAP>
35.522

> <PUBCHEM_SHAPE_FINGERPRINT>
10382601 240 18334017155742696568
11244481 83 15214169498617539093
11370993 70 18194672885616037408
11640471 11 18202007633322030321
11725454 13 16518736720985535295
12173636 292 17905040705036927877
12403259 327 16009020730966616353
12553582 1 17976826384949157442
12788726 201 17275109401780972977
13009979 54 17844528799377456051
13134695 92 18117557314693875510
13140716 1 18262513809933200226
13583140 156 17828787044864666505
14787075 74 17981891049455777763
15342168 16 18188493596150707085
15490181 8 18266745868890948042
16945 1 18335988579563966202
17357990 137 17843704174304099961
17980427 23 17486757602544633545
1813 80 17911246009647262966
19765921 60 18199464540188825475
20157964 124 18335974299736717349
20510252 161 17618226547386064866
20671657 1 18411708655497745286
20715895 44 17766837231177827697
21524375 3 18270965772774120372
21639500 275 18335412457135713399
2255824 54 18339361868443089678
22854114 111 18410857646593595563
23419403 2 17244106403434574694
23559900 14 18336823087968824731
23598291 2 18057050103285367259
2748010 2 18118418451674104406
305870 269 18337109063733092558
3091708 16 9402671013294684954
350125 39 18118701043368809202
352729 6 17905046211633679678
4175511 71 17979931409832667495
4340502 62 18114186363311137515
474 4 18409164428519509201
49207404 50 18043554861112295755
6992083 37 17767688256807282515
7364860 26 18412260601850527158
7615 1 18059573521479266553
7832392 63 18198066871736059057
81228 2 17039250164128823186
84936 182 18272644688280434240
9981440 41 18123457539191561498

> <PUBCHEM_SHAPE_MULTIPOLES>
374.83
6.86
3.35
1.18
5.22
0.52
0.23
-3.44
-0.09
-3.48
0.1
0.95
-0.46
-1.3

> <PUBCHEM_SHAPE_SELFOVERLAP>
814.776

> <PUBCHEM_SHAPE_VOLUME>
204.4

> <PUBCHEM_COORDINATE_TYPE>
2
5
10

$$$$
