25101956
  -OEChem-10062121553D

 70 75  0     0  0  0  0  0  0999 V2000
   -4.2715    0.1490    1.6395 O   0  0  0  0  0  0  0  0  0  0  0  0
    0.5779    3.0499    0.0080 O   0  0  0  0  0  0  0  0  0  0  0  0
    0.1946    3.2501    2.2395 O   0  0  0  0  0  0  0  0  0  0  0  0
    0.0431    0.2634    2.2001 N   0  0  0  0  0  0  0  0  0  0  0  0
    2.1977    0.7986   -0.5409 N   0  0  0  0  0  0  0  0  0  0  0  0
    1.3133   -1.0246    0.8943 C   0  0  0  0  0  0  0  0  0  0  0  0
    0.4311   -1.0385    1.9769 C   0  0  0  0  0  0  0  0  0  0  0  0
    1.4404    0.3298    0.4767 C   0  0  0  0  0  0  0  0  0  0  0  0
   -0.9125    0.7046    3.2800 C   0  0  0  0  0  0  0  0  0  0  0  0
    0.6479    1.0976    1.2986 C   0  0  0  0  0  0  0  0  0  0  0  0
    1.8656   -2.2438    0.4539 C   0  0  0  0  0  0  0  0  0  0  0  0
   -2.3298    0.9802    2.7733 C   0  0  0  0  0  0  0  0  0  0  0  0
    0.0725   -2.2153    2.6439 C   0  0  0  0  0  0  0  0  0  0  0  0
    2.7813   -2.2659   -0.6627 C   0  0  0  0  0  0  0  0  0  0  0  0
    1.5161   -3.4288    1.1114 C   0  0  0  0  0  0  0  0  0  0  0  0
    0.6331   -3.4125    2.1894 C   0  0  0  0  0  0  0  0  0  0  0  0
   -2.9537   -0.2063    2.0479 C   0  0  0  0  0  0  0  0  0  0  0  0
    0.4529    2.5170    1.2633 C   0  0  0  0  0  0  0  0  0  0  0  0
    4.1562   -2.1319   -0.4691 C   0  0  0  0  0  0  0  0  0  0  0  0
    3.2946    1.7398   -0.6359 C   0  0  0  0  0  0  0  0  0  0  0  0
    2.2706   -2.4247   -1.9510 C   0  0  0  0  0  0  0  0  0  0  0  0
    5.0203   -2.1571   -1.5640 C   0  0  0  0  0  0  0  0  0  0  0  0
    4.7398   -1.9606    0.8968 C   0  0  0  0  0  0  0  0  0  0  0  0
    3.1348   -2.4497   -3.0457 C   0  0  0  0  0  0  0  0  0  0  0  0
   -4.7400   -0.4277    0.4935 C   0  0  0  0  0  0  0  0  0  0  0  0
    4.5095   -2.3158   -2.8523 C   0  0  0  0  0  0  0  0  0  0  0  0
    3.8756    2.0111   -1.8746 C   0  0  0  0  0  0  0  0  0  0  0  0
    3.7707    2.3741    0.5117 C   0  0  0  0  0  0  0  0  0  0  0  0
   -5.1244    0.3488   -0.6119 C   0  0  0  0  0  0  0  0  0  0  0  0
   -5.6039   -0.2959   -1.7770 C   0  0  0  0  0  0  0  0  0  0  0  0
   -4.8274   -1.8195    0.4510 C   0  0  0  0  0  0  0  0  0  0  0  0
    4.9328    2.9165   -1.9659 C   0  0  0  0  0  0  0  0  0  0  0  0
    4.8278    3.2796    0.4203 C   0  0  0  0  0  0  0  0  0  0  0  0
    5.4088    3.5507   -0.8186 C   0  0  0  0  0  0  0  0  0  0  0  0
   -5.0432    1.7506   -0.5867 C   0  0  0  0  0  0  0  0  0  0  0  0
   -5.6848   -1.6978   -1.8024 C   0  0  0  0  0  0  0  0  0  0  0  0
   -5.2987   -2.4534   -0.6949 C   0  0  0  0  0  0  0  0  0  0  0  0
   -5.9882    0.4803   -2.8825 C   0  0  0  0  0  0  0  0  0  0  0  0
   -5.4296    2.5060   -1.6942 C   0  0  0  0  0  0  0  0  0  0  0  0
   -5.9013    1.8720   -2.8399 C   0  0  0  0  0  0  0  0  0  0  0  0
   -0.4678    1.5780    3.7636 H   0  0  0  0  0  0  0  0  0  0  0  0
   -0.9225   -0.0891    4.0333 H   0  0  0  0  0  0  0  0  0  0  0  0
   -2.3278    1.8443    2.0976 H   0  0  0  0  0  0  0  0  0  0  0  0
   -2.9671    1.2686    3.6181 H   0  0  0  0  0  0  0  0  0  0  0  0
   -0.6164   -2.2207    3.4811 H   0  0  0  0  0  0  0  0  0  0  0  0
    1.9310   -4.3814    0.7883 H   0  0  0  0  0  0  0  0  0  0  0  0
    2.1855    0.2476   -1.3984 H   0  0  0  0  0  0  0  0  0  0  0  0
    0.3745   -4.3449    2.6849 H   0  0  0  0  0  0  0  0  0  0  0  0
   -3.0139   -1.0698    2.7196 H   0  0  0  0  0  0  0  0  0  0  0  0
   -2.3496   -0.4765    1.1739 H   0  0  0  0  0  0  0  0  0  0  0  0
    1.2015   -2.5294   -2.1214 H   0  0  0  0  0  0  0  0  0  0  0  0
    6.0940   -2.0533   -1.4324 H   0  0  0  0  0  0  0  0  0  0  0  0
    5.8315   -1.8728    0.8622 H   0  0  0  0  0  0  0  0  0  0  0  0
    4.3621   -1.0488    1.3706 H   0  0  0  0  0  0  0  0  0  0  0  0
    4.5089   -2.8241    1.5289 H   0  0  0  0  0  0  0  0  0  0  0  0
    2.7371   -2.5723   -4.0489 H   0  0  0  0  0  0  0  0  0  0  0  0
    5.1820   -2.3344   -3.7049 H   0  0  0  0  0  0  0  0  0  0  0  0
    3.5144    1.5234   -2.7763 H   0  0  0  0  0  0  0  0  0  0  0  0
    3.3514    2.1705    1.4923 H   0  0  0  0  0  0  0  0  0  0  0  0
    0.4431    4.0216    0.0118 H   0  0  0  0  0  0  0  0  0  0  0  0
   -4.5403   -2.4236    1.3074 H   0  0  0  0  0  0  0  0  0  0  0  0
    5.3856    3.1272   -2.9303 H   0  0  0  0  0  0  0  0  0  0  0  0
    5.2014    3.7705    1.3142 H   0  0  0  0  0  0  0  0  0  0  0  0
   -4.6785    2.2772    0.2925 H   0  0  0  0  0  0  0  0  0  0  0  0
    6.2326    4.2549   -0.8895 H   0  0  0  0  0  0  0  0  0  0  0  0
   -6.0508   -2.2145   -2.6873 H   0  0  0  0  0  0  0  0  0  0  0  0
   -5.3683   -3.5368   -0.7269 H   0  0  0  0  0  0  0  0  0  0  0  0
   -6.3596    0.0061   -3.7886 H   0  0  0  0  0  0  0  0  0  0  0  0
   -5.3618    3.5895   -1.6619 H   0  0  0  0  0  0  0  0  0  0  0  0
   -6.2017    2.4607   -3.7018 H   0  0  0  0  0  0  0  0  0  0  0  0
  1 17  1  0  0  0  0
  1 25  1  0  0  0  0
  2 18  1  0  0  0  0
  2 60  1  0  0  0  0
  3 18  2  0  0  0  0
  4  7  1  0  0  0  0
  4  9  1  0  0  0  0
  4 10  1  0  0  0  0
  5  8  1  0  0  0  0
  5 20  1  0  0  0  0
  5 47  1  0  0  0  0
  6  7  1  0  0  0  0
  6  8  1  0  0  0  0
  6 11  2  0  0  0  0
  7 13  2  0  0  0  0
  8 10  2  0  0  0  0
  9 12  1  0  0  0  0
  9 41  1  0  0  0  0
  9 42  1  0  0  0  0
 10 18  1  0  0  0  0
 11 14  1  0  0  0  0
 11 15  1  0  0  0  0
 12 17  1  0  0  0  0
 12 43  1  0  0  0  0
 12 44  1  0  0  0  0
 13 16  1  0  0  0  0
 13 45  1  0  0  0  0
 14 19  1  0  0  0  0
 14 21  2  0  0  0  0
 15 16  2  0  0  0  0
 15 46  1  0  0  0  0
 16 48  1  0  0  0  0
 17 49  1  0  0  0  0
 17 50  1  0  0  0  0
 19 22  2  0  0  0  0
 19 23  1  0  0  0  0
 20 27  2  0  0  0  0
 20 28  1  0  0  0  0
 21 24  1  0  0  0  0
 21 51  1  0  0  0  0
 22 26  1  0  0  0  0
 22 52  1  0  0  0  0
 23 53  1  0  0  0  0
 23 54  1  0  0  0  0
 23 55  1  0  0  0  0
 24 26  2  0  0  0  0
 24 56  1  0  0  0  0
 25 29  1  0  0  0  0
 25 31  2  0  0  0  0
 26 57  1  0  0  0  0
 27 32  1  0  0  0  0
 27 58  1  0  0  0  0
 28 33  2  0  0  0  0
 28 59  1  0  0  0  0
 29 30  1  0  0  0  0
 29 35  2  0  0  0  0
 30 36  1  0  0  0  0
 30 38  2  0  0  0  0
 31 37  1  0  0  0  0
 31 61  1  0  0  0  0
 32 34  2  0  0  0  0
 32 62  1  0  0  0  0
 33 34  1  0  0  0  0
 33 63  1  0  0  0  0
 34 65  1  0  0  0  0
 35 39  1  0  0  0  0
 35 64  1  0  0  0  0
 36 37  2  0  0  0  0
 36 66  1  0  0  0  0
 37 67  1  0  0  0  0
 38 40  1  0  0  0  0
 38 68  1  0  0  0  0
 39 40  2  0  0  0  0
 39 69  1  0  0  0  0
 40 70  1  0  0  0  0
M  END
> <PUBCHEM_COMPOUND_CID>
25101956

> <PUBCHEM_CONFORMER_RMSD>
1

> <PUBCHEM_CONFORMER_DIVERSEORDER>
1
102
32
253
241
231
282
14
226
130
269
126
217
281
254
9
264
50
244
196
207
125
114
178
164
144
223
251
216
10
221
211
236
11
139
101
19
150
145
107
129
246
147
285
213
127
59
215
267
245
225
161
289
280
287
99
286
138
175
48
283
66
214
34
250
105
70
47
257
39
249
41
91
94
272
2
258
181
89
205
159
166
242
202
186
185
90
172
255
266
109
44
149
42
195
100
162
71
170
26
82
141
212
220
61
273
180
291
62
234
228
56
73
187
190
93
232
219
277
174
271
112
206
27
55
184
224
92
28
111
120
88
142
148
76
230
210
275
191
201
247
203
123
95
87
137
238
86
135
163
171
83
260
146
80
261
15
158
115
263
152
132
79
279
153
194
239
96
53
133
204
72
108
136
81
256
40
23
7
274
98
6
54
208
165
240
122
243
192
200
25
278
229
155
5
176
284
167
117
189
134
57
168
103
268
121
182
222
51
119
143
235
4
290
18
58
17
156
173
49
106
177
209
183
270
104
188
116
237
265
38
20
197
262
233
21
35
65
198
29
52
67
227
151
12
60
78
63
97
45
276
16
199
288
160
33
259
30
8
85
157
113
169
179
74
118
77
193
248
218
43
3
154
75
31
252
69
68
64
36
110
22
13
46
128
84
140
37
124
131
24

> <PUBCHEM_MMFF94_PARTIAL_CHARGES>
55
1 -0.36
10 -0.24
13 -0.15
15 -0.15
16 -0.15
17 0.28
18 0.81
19 -0.14
2 -0.65
20 0.1
21 -0.15
22 -0.15
23 0.14
24 -0.15
25 0.08
26 -0.15
27 -0.15
28 -0.15
3 -0.57
31 -0.15
32 -0.15
33 -0.15
34 -0.15
35 -0.15
36 -0.15
37 -0.15
38 -0.15
39 -0.15
4 0.05
40 -0.15
45 0.15
46 0.15
47 0.4
48 0.15
5 -0.58
51 0.15
52 0.15
56 0.15
57 0.15
58 0.15
59 0.15
60 0.5
61 0.15
62 0.15
63 0.15
64 0.15
65 0.15
66 0.15
67 0.15
68 0.15
69 0.15
7 -0.15
70 0.15
8 0.08
9 0.26

> <PUBCHEM_EFFECTIVE_ROTOR_COUNT>
9

> <PUBCHEM_PHARMACOPHORE_FEATURES>
13
1 1 acceptor
1 2 acceptor
1 3 acceptor
1 4 cation
1 5 cation
1 5 donor
3 2 3 18 anion
5 4 6 7 8 10 rings
6 14 19 21 22 24 26 rings
6 20 27 28 32 33 34 rings
6 25 29 30 31 36 37 rings
6 29 30 35 38 39 40 rings
6 6 7 11 13 15 16 rings

> <PUBCHEM_HEAVY_ATOM_COUNT>
40

> <PUBCHEM_ATOM_DEF_STEREO_COUNT>
0

> <PUBCHEM_ATOM_UDEF_STEREO_COUNT>
0

> <PUBCHEM_BOND_DEF_STEREO_COUNT>
0

> <PUBCHEM_BOND_UDEF_STEREO_COUNT>
0

> <PUBCHEM_ISOTOPIC_ATOM_COUNT>
0

> <PUBCHEM_COMPONENT_COUNT>
1

> <PUBCHEM_CACTVS_TAUTO_COUNT>
2

> <PUBCHEM_CONFORMER_ID>
017F068400000001

> <PUBCHEM_MMFF94_ENERGY>
136.6701

> <PUBCHEM_FEATURE_SELFOVERLAP>
66.149

> <PUBCHEM_SHAPE_FINGERPRINT>
10928967 22 15985099739355736743
10974685 15 17749678509858788939
11135926 11 18130797809835567504
11578080 2 17459768097673352182
11720765 8 17245805084221830451
11763715 3 16342039585054538658
11828422 8 17240198807760058650
12422481 6 10954001728367037730
13383661 66 17909273825553107355
13636023 20 18337941368413273529
15406563 42 17894908572485754549
16708801 149 16298392400361572535
20775438 99 18272091638696615830
25222932 49 14763766556385591686
3459 39 15068341207354318171
44802255 64 17680441236487246744
46194498 28 18343020034324388079

> <PUBCHEM_SHAPE_MULTIPOLES>
795.61
15.02
4.87
3.57
17.34
1.09
0.09
4.29
13.48
-6.2
0.47
1.35
-0.59
1.71

> <PUBCHEM_SHAPE_SELFOVERLAP>
1775.717

> <PUBCHEM_SHAPE_VOLUME>
422.7

> <PUBCHEM_COORDINATE_TYPE>
2
5
10

$$$$
