49830678
  -OEChem-10062121523D

 57 60  0     0  0  0  0  0  0999 V2000
   -0.3538    3.7492    1.5434 S   0  0  0  0  0  0  0  0  0  0  0  0
    0.1578    4.8592    2.3254 O   0  0  0  0  0  0  0  0  0  0  0  0
   -1.7369    3.7527    1.1071 O   0  0  0  0  0  0  0  0  0  0  0  0
    5.7482   -4.8054    0.1556 O   0  5  0  0  0  0  0  0  0  0  0  0
    6.5310   -3.0895   -0.9678 O   0  0  0  0  0  0  0  0  0  0  0  0
    0.0037    2.2745    2.3603 N   0  0  0  0  0  0  0  0  0  0  0  0
   -6.6826   -1.9901   -0.9050 N   0  0  0  0  0  0  0  0  0  0  0  0
   -1.3729    0.6877    1.2857 N   0  0  0  0  0  0  0  0  0  0  0  0
    1.0123    0.3665    1.4087 N   0  0  0  0  0  0  0  0  0  0  0  0
    3.0892    3.3230   -3.3149 N   0  0  0  0  0  0  0  0  0  0  0  0
    5.6261   -3.6406   -0.2953 N   0  3  0  0  0  0  0  0  0  0  0  0
   -2.7965   -0.8664    0.2238 C   0  0  0  0  0  0  0  0  0  0  0  0
   -1.4579   -0.4787    0.6129 C   0  0  0  0  0  0  0  0  0  0  0  0
    0.8541   -0.7899    0.7320 C   0  0  0  0  0  0  0  0  0  0  0  0
   -0.3682   -1.2673    0.3048 C   0  0  0  0  0  0  0  0  0  0  0  0
   -5.3778   -1.6130   -0.5255 C   0  0  0  0  0  0  0  0  0  0  0  0
   -0.1261    1.0449    1.6482 C   0  0  0  0  0  0  0  0  0  0  0  0
    2.0728   -1.5179    0.4700 C   0  0  0  0  0  0  0  0  0  0  0  0
    0.6664    3.6229    0.1024 C   0  0  0  0  0  0  0  0  0  0  0  0
   -3.3372   -2.0666    0.6853 C   0  0  0  0  0  0  0  0  0  0  0  0
   -3.5468   -0.0394   -0.6122 C   0  0  0  0  0  0  0  0  0  0  0  0
   -4.6277   -2.4400    0.3106 C   0  0  0  0  0  0  0  0  0  0  0  0
   -4.8374   -0.4127   -0.9870 C   0  0  0  0  0  0  0  0  0  0  0  0
    0.1671    3.0275   -1.0559 C   0  0  0  0  0  0  0  0  0  0  0  0
    1.9700    4.1186    0.1257 C   0  0  0  0  0  0  0  0  0  0  0  0
    2.2307   -2.8137    0.9615 C   0  0  0  0  0  0  0  0  0  0  0  0
    3.0924   -0.9256   -0.2752 C   0  0  0  0  0  0  0  0  0  0  0  0
   -7.4728   -1.1339   -1.7674 C   0  0  0  0  0  0  0  0  0  0  0  0
   -7.2537   -3.2354   -0.4317 C   0  0  0  0  0  0  0  0  0  0  0  0
    0.9714    2.9278   -2.1910 C   0  0  0  0  0  0  0  0  0  0  0  0
    2.7743    4.0188   -1.0094 C   0  0  0  0  0  0  0  0  0  0  0  0
    2.2750    3.4237   -2.1680 C   0  0  0  0  0  0  0  0  0  0  0  0
    3.4082   -3.5171    0.7082 C   0  0  0  0  0  0  0  0  0  0  0  0
    4.2699   -1.6289   -0.5286 C   0  0  0  0  0  0  0  0  0  0  0  0
    4.4278   -2.9247   -0.0368 C   0  0  0  0  0  0  0  0  0  0  0  0
   -0.4651   -2.1962   -0.2463 H   0  0  0  0  0  0  0  0  0  0  0  0
   -2.7706   -2.7225    1.3423 H   0  0  0  0  0  0  0  0  0  0  0  0
   -3.1403    0.8984   -0.9841 H   0  0  0  0  0  0  0  0  0  0  0  0
    0.8358    2.3046    2.9637 H   0  0  0  0  0  0  0  0  0  0  0  0
   -5.0036   -3.3822    0.6969 H   0  0  0  0  0  0  0  0  0  0  0  0
   -5.3798    0.2644   -1.6394 H   0  0  0  0  0  0  0  0  0  0  0  0
   -0.8443    2.6332   -1.0960 H   0  0  0  0  0  0  0  0  0  0  0  0
    2.3818    4.5788    1.0193 H   0  0  0  0  0  0  0  0  0  0  0  0
    1.4500   -3.2915    1.5490 H   0  0  0  0  0  0  0  0  0  0  0  0
    2.9856    0.0825   -0.6696 H   0  0  0  0  0  0  0  0  0  0  0  0
   -7.6460   -0.1564   -1.3036 H   0  0  0  0  0  0  0  0  0  0  0  0
   -6.9893   -0.9984   -2.7413 H   0  0  0  0  0  0  0  0  0  0  0  0
   -8.4611   -1.5626   -1.9679 H   0  0  0  0  0  0  0  0  0  0  0  0
   -6.6633   -4.0950   -0.7680 H   0  0  0  0  0  0  0  0  0  0  0  0
   -7.3288   -3.2461    0.6614 H   0  0  0  0  0  0  0  0  0  0  0  0
   -8.2690   -3.3868   -0.8150 H   0  0  0  0  0  0  0  0  0  0  0  0
    0.5712    2.4606   -3.0872 H   0  0  0  0  0  0  0  0  0  0  0  0
    3.7892    4.4069   -0.9782 H   0  0  0  0  0  0  0  0  0  0  0  0
    3.4968   -4.5241    1.1079 H   0  0  0  0  0  0  0  0  0  0  0  0
    5.0423   -1.1361   -1.1134 H   0  0  0  0  0  0  0  0  0  0  0  0
    4.0343    3.6825   -3.2981 H   0  0  0  0  0  0  0  0  0  0  0  0
    2.7284    2.8916   -4.1554 H   0  0  0  0  0  0  0  0  0  0  0  0
  1  2  2  0  0  0  0
  1  3  2  0  0  0  0
  1  6  1  0  0  0  0
  1 19  1  0  0  0  0
  4 11  1  0  0  0  0
  5 11  2  0  0  0  0
  6 17  1  0  0  0  0
  6 39  1  0  0  0  0
  7 16  1  0  0  0  0
  7 28  1  0  0  0  0
  7 29  1  0  0  0  0
  8 13  1  0  0  0  0
  8 17  2  0  0  0  0
  9 14  2  0  0  0  0
  9 17  1  0  0  0  0
 10 32  1  0  0  0  0
 10 56  1  0  0  0  0
 10 57  1  0  0  0  0
 11 35  1  0  0  0  0
 12 13  1  0  0  0  0
 12 20  2  0  0  0  0
 12 21  1  0  0  0  0
 13 15  2  0  0  0  0
 14 15  1  0  0  0  0
 14 18  1  0  0  0  0
 15 36  1  0  0  0  0
 16 22  2  0  0  0  0
 16 23  1  0  0  0  0
 18 26  2  0  0  0  0
 18 27  1  0  0  0  0
 19 24  2  0  0  0  0
 19 25  1  0  0  0  0
 20 22  1  0  0  0  0
 20 37  1  0  0  0  0
 21 23  2  0  0  0  0
 21 38  1  0  0  0  0
 22 40  1  0  0  0  0
 23 41  1  0  0  0  0
 24 30  1  0  0  0  0
 24 42  1  0  0  0  0
 25 31  2  0  0  0  0
 25 43  1  0  0  0  0
 26 33  1  0  0  0  0
 26 44  1  0  0  0  0
 27 34  2  0  0  0  0
 27 45  1  0  0  0  0
 28 46  1  0  0  0  0
 28 47  1  0  0  0  0
 28 48  1  0  0  0  0
 29 49  1  0  0  0  0
 29 50  1  0  0  0  0
 29 51  1  0  0  0  0
 30 32  2  0  0  0  0
 30 52  1  0  0  0  0
 31 32  1  0  0  0  0
 31 53  1  0  0  0  0
 33 35  2  0  0  0  0
 33 54  1  0  0  0  0
 34 35  1  0  0  0  0
 34 55  1  0  0  0  0
M  CHG  2   4  -1  11   1
M  END
> <PUBCHEM_COMPOUND_CID>
49830678

> <PUBCHEM_CONFORMER_RMSD>
1

> <PUBCHEM_CONFORMER_DIVERSEORDER>
1
28
22
19
5
31
25
9
16
30
32
35
3
20
8
29
27
15
10
13
12
33
24
17
6
26
34
37
23
36
14
2
18
7
4
21
11

> <PUBCHEM_MMFF94_PARTIAL_CHARGES>
49
1 1.45
10 -0.9
11 0.91
13 0.31
14 0.31
15 -0.15
16 0.1
17 0.82
19 -0.01
2 -0.65
20 -0.15
21 -0.15
22 -0.15
23 -0.15
24 -0.15
25 -0.15
26 -0.15
27 -0.15
28 0.37
29 0.37
3 -0.65
30 -0.15
31 -0.15
32 0.1
33 -0.15
34 -0.15
35 0.13
36 0.15
37 0.15
38 0.15
39 0.42
4 -0.52
40 0.15
41 0.15
42 0.15
43 0.15
44 0.15
45 0.15
5 -0.52
52 0.15
53 0.15
54 0.15
55 0.15
56 0.4
57 0.4
6 -0.76
7 -0.84
8 -0.62
9 -0.62

> <PUBCHEM_EFFECTIVE_ROTOR_COUNT>
7

> <PUBCHEM_PHARMACOPHORE_FEATURES>
14
1 10 cation
1 10 donor
1 2 acceptor
1 3 acceptor
1 4 acceptor
1 4 anion
1 5 acceptor
1 6 donor
1 7 cation
1 9 acceptor
6 12 16 20 21 22 23 rings
6 18 26 27 33 34 35 rings
6 19 24 25 30 31 32 rings
6 8 9 13 14 15 17 rings

> <PUBCHEM_HEAVY_ATOM_COUNT>
35

> <PUBCHEM_ATOM_DEF_STEREO_COUNT>
0

> <PUBCHEM_ATOM_UDEF_STEREO_COUNT>
0

> <PUBCHEM_BOND_DEF_STEREO_COUNT>
0

> <PUBCHEM_BOND_UDEF_STEREO_COUNT>
0

> <PUBCHEM_ISOTOPIC_ATOM_COUNT>
0

> <PUBCHEM_COMPONENT_COUNT>
1

> <PUBCHEM_CACTVS_TAUTO_COUNT>
3

> <PUBCHEM_CONFORMER_ID>
02F85B1600000001

> <PUBCHEM_MMFF94_ENERGY>
125.3071

> <PUBCHEM_FEATURE_SELFOVERLAP>
71.147

> <PUBCHEM_SHAPE_FINGERPRINT>
10675989 125 18053392273008760769
10721379 63 18127975406816391873
11045515 52 18188493454158043636
11093857 51 17828764289585074645
11115154 58 18337107861590759603
11331351 85 18127701426315019251
11488393 25 18045794638864477666
11720765 8 18412256264002383261
12166972 35 18410292506191665895
12202916 173 17484539072308324452
12440610 7 17756690194921292943
12522641 126 18194954365500068079
12717326 69 11959726127486912333
12788726 201 18051405172277026051
131258 43 18271259274229095846
13540713 5 18201174216973236561
14068700 675 18340769234868278398
14114211 68 17900554663810921853
14508225 48 18337669711441858818
14856354 85 14333109889606163586
15444296 9 17314494010823916228
15876981 60 18118135671148448006
15968369 26 18049145963249174523
16988056 13 18337376241091014861
17686467 74 18338793422018375866
17899979 19 18188209905625057340
18365409 1 17911519797197230065
19958102 18 17331399770900046014
20775438 99 17974836574093799231
21120745 212 18269845203127667376
21344244 246 18336549438290106334
21716022 299 18340496646031249284
23522609 53 18056507117331494283
23523766 6 18412821391493674247
23559900 14 18338786923426804075
25019877 29 17189551771368806737
255183 313 17621898486546928800
255183 451 18341889710569387311
3298306 158 17905615753950118849
3388396 114 18191616158235481012
3504750 166 17686334275231190642
4017518 198 17976830002250598548
4046055 25 18266741290055033646
4394409 98 17902520616646249292
45266715 3 18053398862131892132
46194498 28 17969211391080047527
5081480 168 18041260137400898247
513532 50 17129583703205488209
57527295 17 18197521681969032485
6669772 16 17481424198072436568
6700243 42 17629227947396373142
9925002 15 18196955282740089280

> <PUBCHEM_SHAPE_MULTIPOLES>
670.77
13.71
7.69
2.04
23.05
3.13
0.51
-20.99
8.04
-12.95
-0.25
-0.79
2.95
-1.87

> <PUBCHEM_SHAPE_SELFOVERLAP>
1455.346

> <PUBCHEM_SHAPE_VOLUME>
368.4

> <PUBCHEM_COORDINATE_TYPE>
2
5
10

$$$$
