15605335
  -OEChem-10052115193D

 44 46  0     0  0  0  0  0  0999 V2000
   -4.0072   -4.2683    0.4199 Br  0  0  0  0  0  0  0  0  0  0  0  0
    1.3230    2.6651    1.5180 S   0  0  0  0  0  0  0  0  0  0  0  0
    2.0218    3.9117    1.7973 O   0  0  0  0  0  0  0  0  0  0  0  0
    0.7858    1.8752    2.6173 O   0  0  0  0  0  0  0  0  0  0  0  0
    4.0655   -2.1046   -0.4615 O   0  0  0  0  0  0  0  0  0  0  0  0
   -3.2329    1.5703   -0.6253 N   0  0  0  0  0  0  0  0  0  0  0  0
   -1.3692   -2.5696    0.6216 N   0  0  0  0  0  0  0  0  0  0  0  0
   -2.2991   -0.4904   -0.0035 N   0  0  0  0  0  0  0  0  0  0  0  0
    2.3343    1.6669    0.5690 N   0  0  0  0  0  0  0  0  0  0  0  0
   -4.6424   -0.3033   -0.5338 N   0  0  0  0  0  0  0  0  0  0  0  0
    6.8912   -0.2415   -0.7131 N   0  0  0  0  0  0  0  0  0  0  0  0
    0.0317    2.9979    0.3912 C   0  0  0  0  0  0  0  0  0  0  0  0
   -2.1126    2.4200   -0.5670 C   0  0  0  0  0  0  0  0  0  0  0  0
   -1.0787    2.1556    0.3336 C   0  0  0  0  0  0  0  0  0  0  0  0
    0.1105    4.1065   -0.4517 C   0  0  0  0  0  0  0  0  0  0  0  0
   -2.0313    3.5305   -1.4098 C   0  0  0  0  0  0  0  0  0  0  0  0
   -0.9210    4.3727   -1.3521 C   0  0  0  0  0  0  0  0  0  0  0  0
    0.0089   -2.4523    0.3465 C   0  0  0  0  0  0  0  0  0  0  0  0
   -3.3998    0.1908   -0.3754 C   0  0  0  0  0  0  0  0  0  0  0  0
   -2.4884   -1.8096    0.2296 C   0  0  0  0  0  0  0  0  0  0  0  0
    0.9467   -2.8902    1.2816 C   0  0  0  0  0  0  0  0  0  0  0  0
    0.4345   -1.8976   -0.8605 C   0  0  0  0  0  0  0  0  0  0  0  0
    2.7353   -2.2186   -0.1971 C   0  0  0  0  0  0  0  0  0  0  0  0
   -3.7170   -2.4328    0.1008 C   0  0  0  0  0  0  0  0  0  0  0  0
    2.3097   -2.7734    1.0099 C   0  0  0  0  0  0  0  0  0  0  0  0
    1.7977   -1.7808   -1.1323 C   0  0  0  0  0  0  0  0  0  0  0  0
   -4.7659   -1.6240   -0.2865 C   0  0  0  0  0  0  0  0  0  0  0  0
    4.4550   -1.0198   -1.2961 C   0  0  0  0  0  0  0  0  0  0  0  0
    5.8137   -0.5863   -0.9706 C   0  0  0  0  0  0  0  0  0  0  0  0
   -1.1367    1.3212    1.0242 H   0  0  0  0  0  0  0  0  0  0  0  0
    0.9687    4.7721   -0.4288 H   0  0  0  0  0  0  0  0  0  0  0  0
   -2.8274    3.7487   -2.1172 H   0  0  0  0  0  0  0  0  0  0  0  0
   -4.0622    1.9948   -1.0297 H   0  0  0  0  0  0  0  0  0  0  0  0
   -0.8587    5.2348   -2.0096 H   0  0  0  0  0  0  0  0  0  0  0  0
   -1.5849   -3.2477    1.3476 H   0  0  0  0  0  0  0  0  0  0  0  0
    0.6282   -3.3230    2.2265 H   0  0  0  0  0  0  0  0  0  0  0  0
   -0.2771   -1.5656   -1.6119 H   0  0  0  0  0  0  0  0  0  0  0  0
    3.0356   -3.1154    1.7425 H   0  0  0  0  0  0  0  0  0  0  0  0
    2.0837   -1.3719   -2.0968 H   0  0  0  0  0  0  0  0  0  0  0  0
    3.2282    2.0594    0.2495 H   0  0  0  0  0  0  0  0  0  0  0  0
    2.3822    0.6704    0.8137 H   0  0  0  0  0  0  0  0  0  0  0  0
   -5.7711   -2.0130   -0.4168 H   0  0  0  0  0  0  0  0  0  0  0  0
    3.7992   -0.1497   -1.1706 H   0  0  0  0  0  0  0  0  0  0  0  0
    4.4166   -1.3456   -2.3419 H   0  0  0  0  0  0  0  0  0  0  0  0
  1 24  1  0  0  0  0
  2  3  2  0  0  0  0
  2  4  2  0  0  0  0
  2  9  1  0  0  0  0
  2 12  1  0  0  0  0
  5 23  1  0  0  0  0
  5 28  1  0  0  0  0
  6 13  1  0  0  0  0
  6 19  1  0  0  0  0
  6 33  1  0  0  0  0
  7 18  1  0  0  0  0
  7 20  1  0  0  0  0
  7 35  1  0  0  0  0
  8 19  1  0  0  0  0
  8 20  2  0  0  0  0
  9 40  1  0  0  0  0
  9 41  1  0  0  0  0
 10 19  2  0  0  0  0
 10 27  1  0  0  0  0
 11 29  3  0  0  0  0
 12 14  1  0  0  0  0
 12 15  2  0  0  0  0
 13 14  2  0  0  0  0
 13 16  1  0  0  0  0
 14 30  1  0  0  0  0
 15 17  1  0  0  0  0
 15 31  1  0  0  0  0
 16 17  2  0  0  0  0
 16 32  1  0  0  0  0
 17 34  1  0  0  0  0
 18 21  2  0  0  0  0
 18 22  1  0  0  0  0
 20 24  1  0  0  0  0
 21 25  1  0  0  0  0
 21 36  1  0  0  0  0
 22 26  2  0  0  0  0
 22 37  1  0  0  0  0
 23 25  2  0  0  0  0
 23 26  1  0  0  0  0
 24 27  2  0  0  0  0
 25 38  1  0  0  0  0
 26 39  1  0  0  0  0
 27 42  1  0  0  0  0
 28 29  1  0  0  0  0
 28 43  1  0  0  0  0
 28 44  1  0  0  0  0
M  END
> <PUBCHEM_COMPOUND_CID>
15605335

> <PUBCHEM_CONFORMER_RMSD>
1

> <PUBCHEM_CONFORMER_DIVERSEORDER>
1
296
90
219
235
196
137
269
319
180
238
343
43
225
213
135
265
27
133
61
117
313
181
110
2
176
134
244
263
274
74
102
345
153
285
297
212
342
233
236
333
98
278
273
19
259
131
242
220
268
332
241
249
210
306
232
175
280
164
187
65
290
182
177
339
152
54
72
62
158
211
255
258
326
189
208
257
11
337
185
115
293
109
16
85
157
301
349
101
188
67
138
328
223
215
264
7
234
155
159
191
205
289
13
320
184
341
302
300
275
103
202
321
324
312
204
174
298
142
347
59
284
68
330
17
266
303
169
125
42
260
227
231
25
254
64
252
105
286
291
127
51
52
224
351
113
48
335
44
323
228
299
340
26
99
200
86
23
173
327
4
346
322
49
199
222
94
89
57
248
209
130
272
161
121
261
167
267
22
91
178
136
73
92
251
144
88
207
350
239
281
123
172
39
336
3
81
217
60
195
314
262
24
93
214
76
151
294
70
287
132
124
198
12
221
116
71
83
38
270
111
230
63
305
58
55
29
37
120
96
243
87
95
66
253
344
165
348
310
329
41
250
40
143
229
194
295
84
237
334
279
97
156
14
283
170
28
316
141
5
315
247
190
331
30
15
309
104
80
162
168
246
118
146
240
122
307
8
160
282
245
53
126
147
179
288
119
47
45
6
271
318
193
226
20
150
206
171
338
46
21
183
148
145
201
128
36
317
112
108
256
154
218
192
166
100
78
139
33
79
308
32
129
82
311
203
77
50
140
35
149
292
325
18
56
276
34
69
114
31
197
163
106
277
75
186
107
304
9
10
216

> <PUBCHEM_MMFF94_PARTIAL_CHARGES>
42
1 -0.11
10 -0.62
11 -0.56
12 -0.01
13 0.1
14 -0.15
15 -0.15
16 -0.15
17 -0.15
18 0.1
19 0.72
2 1.45
20 0.41
21 -0.15
22 -0.15
23 0.08
24 0.11
25 -0.15
26 -0.15
27 0.16
28 0.48
29 0.36
3 -0.65
30 0.15
31 0.15
32 0.15
33 0.4
34 0.15
35 0.4
36 0.15
37 0.15
38 0.15
39 0.15
4 -0.65
40 0.42
41 0.42
42 0.15
5 -0.36
6 -0.6
7 -0.6
8 -0.62
9 -0.98

> <PUBCHEM_EFFECTIVE_ROTOR_COUNT>
7

> <PUBCHEM_PHARMACOPHORE_FEATURES>
12
1 1 hydrophobe
1 11 acceptor
1 3 acceptor
1 4 acceptor
1 5 acceptor
1 6 donor
1 7 donor
1 9 donor
4 6 8 10 19 cation
6 12 13 14 15 16 17 rings
6 18 21 22 23 25 26 rings
6 8 10 19 20 24 27 rings

> <PUBCHEM_HEAVY_ATOM_COUNT>
29

> <PUBCHEM_ATOM_DEF_STEREO_COUNT>
0

> <PUBCHEM_ATOM_UDEF_STEREO_COUNT>
0

> <PUBCHEM_BOND_DEF_STEREO_COUNT>
0

> <PUBCHEM_BOND_UDEF_STEREO_COUNT>
0

> <PUBCHEM_ISOTOPIC_ATOM_COUNT>
0

> <PUBCHEM_COMPONENT_COUNT>
1

> <PUBCHEM_CACTVS_TAUTO_COUNT>
9

> <PUBCHEM_CONFORMER_ID>
00EE1E5700000001

> <PUBCHEM_MMFF94_ENERGY>
86.3951

> <PUBCHEM_FEATURE_SELFOVERLAP>
60.914

> <PUBCHEM_SHAPE_FINGERPRINT>
11513181 2 17621600939913301062
12156800 1 16807536613911002180
12788726 201 18189054209341518179
13402501 40 18341611559759687232
14363568 33 18194415608410972840
14647877 51 18269274745698006560
14739800 52 18334563626250001266
14765038 42 17984159075012446561
14790565 3 17332813751280309329
14931854 50 18337390422677258142
14932702 115 18053936265318818312
150020 26 17621041292831779162
19319366 153 17678741125170141787
20028762 73 16901301058942710727
20531524 4 18196347274637674120
20642791 105 17540518142529092363
20642791 35 18411129247857549075
20715895 44 15810295690783824645
20764821 26 17761467224338868481
21344244 246 17837761597804387455
23559900 14 18193273212098982349
238918 7 17911495891044478304
469060 322 17826552965141538968
5047190 69 18412257338624779280
532947 4 18194672899059900735
550186 7 18270129998024980110
9981440 41 17182769979827828019

> <PUBCHEM_SHAPE_MULTIPOLES>
559.1
9.56
6.94
1.48
8.42
5.08
0.62
-8.53
-3.27
-2.01
0.35
1.07
1
2.3

> <PUBCHEM_SHAPE_SELFOVERLAP>
1173.277

> <PUBCHEM_SHAPE_VOLUME>
318.6

> <PUBCHEM_COORDINATE_TYPE>
2
5
10

$$$$
