49830385
  -OEChem-10052120443D

 46 49  0     0  0  0  0  0  0999 V2000
   -4.0111   -2.9452   -0.2835 F   0  0  0  0  0  0  0  0  0  0  0  0
    8.8153    0.3890   -1.3515 F   0  0  0  0  0  0  0  0  0  0  0  0
    2.3653   -0.0547   -1.1287 O   0  0  0  0  0  0  0  0  0  0  0  0
   -6.6969    1.7831   -0.2822 N   0  0  0  0  0  0  0  0  0  0  0  0
   -5.7526    2.6992   -0.0105 N   0  0  0  0  0  0  0  0  0  0  0  0
    1.4296   -0.3152    1.0034 N   0  0  0  0  0  0  0  0  0  0  0  0
   -3.4140    2.4769    0.4004 N   0  0  0  0  0  0  0  0  0  0  0  0
    3.7217   -0.1425    0.7743 N   0  0  0  0  0  0  0  0  0  0  0  0
   -4.8703    0.5885   -0.0696 C   0  0  0  0  0  0  0  0  0  0  0  0
   -4.0928   -0.5814   -0.0489 C   0  0  0  0  0  0  0  0  0  0  0  0
   -6.2326    0.4964   -0.3319 C   0  0  0  0  0  0  0  0  0  0  0  0
   -2.6766   -0.5131    0.2210 C   0  0  0  0  0  0  0  0  0  0  0  0
   -4.6427    1.9688    0.1181 C   0  0  0  0  0  0  0  0  0  0  0  0
   -4.7228   -1.8078   -0.2950 C   0  0  0  0  0  0  0  0  0  0  0  0
   -6.8803   -0.7159   -0.5798 C   0  0  0  0  0  0  0  0  0  0  0  0
   -2.2114   -0.6048    1.5328 C   0  0  0  0  0  0  0  0  0  0  0  0
   -1.7732   -0.3558   -0.8300 C   0  0  0  0  0  0  0  0  0  0  0  0
   -6.0929   -1.8717   -0.5557 C   0  0  0  0  0  0  0  0  0  0  0  0
    0.0607   -0.3813    0.7425 C   0  0  0  0  0  0  0  0  0  0  0  0
   -0.8427   -0.5389    1.7936 C   0  0  0  0  0  0  0  0  0  0  0  0
   -0.4045   -0.2897   -0.5693 C   0  0  0  0  0  0  0  0  0  0  0  0
    5.0223   -0.0063    0.2345 C   0  0  0  0  0  0  0  0  0  0  0  0
    2.4978   -0.1592    0.0865 C   0  0  0  0  0  0  0  0  0  0  0  0
    7.4147    0.1205    0.5465 C   0  0  0  0  0  0  0  0  0  0  0  0
    6.1324   -0.0128    1.0790 C   0  0  0  0  0  0  0  0  0  0  0  0
    5.1946    0.1340   -1.1426 C   0  0  0  0  0  0  0  0  0  0  0  0
    7.5869    0.2607   -0.8306 C   0  0  0  0  0  0  0  0  0  0  0  0
    6.4768    0.2674   -1.6752 C   0  0  0  0  0  0  0  0  0  0  0  0
    8.5994    0.1120    1.4525 C   0  0  0  0  0  0  0  0  0  0  0  0
   -7.9444   -0.7636   -0.7821 H   0  0  0  0  0  0  0  0  0  0  0  0
   -2.9022   -0.7273    2.3637 H   0  0  0  0  0  0  0  0  0  0  0  0
   -2.1206   -0.2825   -1.8581 H   0  0  0  0  0  0  0  0  0  0  0  0
   -6.5569   -2.8367   -0.7435 H   0  0  0  0  0  0  0  0  0  0  0  0
   -7.6467    2.1035   -0.4245 H   0  0  0  0  0  0  0  0  0  0  0  0
   -0.4942   -0.6114    2.8207 H   0  0  0  0  0  0  0  0  0  0  0  0
    0.2289   -0.1668   -1.4360 H   0  0  0  0  0  0  0  0  0  0  0  0
    1.6916   -0.3892    1.9833 H   0  0  0  0  0  0  0  0  0  0  0  0
   -3.2792    3.4750    0.5311 H   0  0  0  0  0  0  0  0  0  0  0  0
   -2.5687    1.9293    0.4996 H   0  0  0  0  0  0  0  0  0  0  0  0
    5.9967   -0.1239    2.1525 H   0  0  0  0  0  0  0  0  0  0  0  0
    3.6781   -0.2400    1.7855 H   0  0  0  0  0  0  0  0  0  0  0  0
    4.3882    0.1489   -1.8616 H   0  0  0  0  0  0  0  0  0  0  0  0
    6.6126    0.3766   -2.7473 H   0  0  0  0  0  0  0  0  0  0  0  0
    8.3098    0.2367    2.5013 H   0  0  0  0  0  0  0  0  0  0  0  0
    9.2789    0.9345    1.2049 H   0  0  0  0  0  0  0  0  0  0  0  0
    9.1385   -0.8359    1.3577 H   0  0  0  0  0  0  0  0  0  0  0  0
  1 14  1  0  0  0  0
  2 27  1  0  0  0  0
  3 23  2  0  0  0  0
  4  5  1  0  0  0  0
  4 11  1  0  0  0  0
  4 34  1  0  0  0  0
  5 13  2  0  0  0  0
  6 19  1  0  0  0  0
  6 23  1  0  0  0  0
  6 37  1  0  0  0  0
  7 13  1  0  0  0  0
  7 38  1  0  0  0  0
  7 39  1  0  0  0  0
  8 22  1  0  0  0  0
  8 23  1  0  0  0  0
  8 41  1  0  0  0  0
  9 10  1  0  0  0  0
  9 11  2  0  0  0  0
  9 13  1  0  0  0  0
 10 12  1  0  0  0  0
 10 14  2  0  0  0  0
 11 15  1  0  0  0  0
 12 16  2  0  0  0  0
 12 17  1  0  0  0  0
 14 18  1  0  0  0  0
 15 18  2  0  0  0  0
 15 30  1  0  0  0  0
 16 20  1  0  0  0  0
 16 31  1  0  0  0  0
 17 21  2  0  0  0  0
 17 32  1  0  0  0  0
 18 33  1  0  0  0  0
 19 20  2  0  0  0  0
 19 21  1  0  0  0  0
 20 35  1  0  0  0  0
 21 36  1  0  0  0  0
 22 25  2  0  0  0  0
 22 26  1  0  0  0  0
 24 25  1  0  0  0  0
 24 27  2  0  0  0  0
 24 29  1  0  0  0  0
 25 40  1  0  0  0  0
 26 28  2  0  0  0  0
 26 42  1  0  0  0  0
 27 28  1  0  0  0  0
 28 43  1  0  0  0  0
 29 44  1  0  0  0  0
 29 45  1  0  0  0  0
 29 46  1  0  0  0  0
M  END
> <PUBCHEM_COMPOUND_CID>
49830385

> <PUBCHEM_CONFORMER_RMSD>
0.8

> <PUBCHEM_CONFORMER_DIVERSEORDER>
2
13
27
14
7
28
18
1
17
12
15
16
8
21
23
11
20
4
19
26
5
25
3
6
10
22
24
9

> <PUBCHEM_MMFF94_PARTIAL_CHARGES>
40
1 -0.19
11 -0.15
13 0.37
14 0.19
15 -0.15
16 -0.15
17 -0.15
18 -0.15
19 0.12
2 -0.19
20 -0.15
21 -0.15
22 0.12
23 0.69
24 -0.14
25 -0.15
26 -0.15
27 0.19
28 -0.15
29 0.14
3 -0.57
30 0.15
31 0.15
32 0.15
33 0.15
34 0.27
35 0.15
36 0.15
37 0.37
38 0.4
39 0.4
4 0.3
40 0.15
41 0.37
42 0.15
43 0.15
5 -0.71
6 -0.55
7 -0.88
8 -0.55

> <PUBCHEM_EFFECTIVE_ROTOR_COUNT>
5

> <PUBCHEM_PHARMACOPHORE_FEATURES>
10
1 3 acceptor
1 4 donor
1 6 donor
1 7 donor
1 8 donor
3 5 7 13 cation
5 4 5 9 11 13 rings
6 12 16 17 19 20 21 rings
6 22 24 25 26 27 28 rings
6 9 10 11 14 15 18 rings

> <PUBCHEM_HEAVY_ATOM_COUNT>
29

> <PUBCHEM_ATOM_DEF_STEREO_COUNT>
0

> <PUBCHEM_ATOM_UDEF_STEREO_COUNT>
0

> <PUBCHEM_BOND_DEF_STEREO_COUNT>
0

> <PUBCHEM_BOND_UDEF_STEREO_COUNT>
0

> <PUBCHEM_ISOTOPIC_ATOM_COUNT>
0

> <PUBCHEM_COMPONENT_COUNT>
1

> <PUBCHEM_CACTVS_TAUTO_COUNT>
80

> <PUBCHEM_CONFORMER_ID>
02F859F100000002

> <PUBCHEM_MMFF94_ENERGY>
83.7071

> <PUBCHEM_FEATURE_SELFOVERLAP>
50.887

> <PUBCHEM_SHAPE_FINGERPRINT>
10 15 12901550161146006358
10076449 9 17989488542023363699
10299344 5 17967531277214794762
10391435 84 16271916152086378062
10411042 1 18051408768035356463
10670039 82 18335413565817569685
10730089 173 18410291398458978769
10906281 52 17458639895109864610
11315181 36 17822012034344213755
11719270 70 17989204820652890934
11991303 11 17060051609924116148
12082328 90 18412543210482410911
12091667 2 18335422383074224787
12236239 1 17967529052453371139
13885169 127 18412542102623298426
13914758 101 18408886222455951048
13947920 75 18260264153313308025
14251764 18 17821728338827161084
14849402 71 17603876645234097940
14856354 85 18409450332177799119
150020 25 17775566421056076708
15183329 4 18408888430000829152
15198563 99 16773524261014712328
15276724 80 17240480308670194716
15328684 2 17969488334782424288
15419008 47 17632290173026497152
15419008 91 17845637223452917736
15461852 350 18411704304954291846
15510794 2 18060700586034500182
1577012 14 18040433265511422408
15849732 13 17704070716077621172
195137 175 17676493860888912796
21150785 3 18202847660332011288
21267235 1 15698008452744494994
21756936 100 17822014190739511313
21792961 116 17560805411408036246
23081809 10 17967529078080873706
23198884 109 18259987076093120515
23522609 53 17750253460061468812
23559900 14 17846771936315620763
23576562 1 18045510956996905924
249057 3 18341328981166220799
394071 54 16298107571342495778
4073 2 18113905952769502306
4339292 15 17773866662438187999
44280117 145 17560794502971612447
44555599 121 17821736048241210732
445580 37 18411141324777915189
44880568 143 18130794442982705976
5265222 85 18200592638934775326
54039377 194 12678880378210451653
5758199 1 17675924296411471034
5969126 39 14979960237693641755
59755656 520 16805604785045184627

> <PUBCHEM_SHAPE_MULTIPOLES>
551.48
26.45
1.78
1.34
40.25
0.47
0.12
3.89
-4.16
-5.57
-0.06
2.17
-0.11
-0.77

> <PUBCHEM_SHAPE_SELFOVERLAP>
1230.631

> <PUBCHEM_SHAPE_VOLUME>
294.2

> <PUBCHEM_COORDINATE_TYPE>
2
5
10

$$$$
