15604547
  -OEChem-10052120443D

 54 58  0     1  0  0  0  0  0999 V2000
   -2.4187    2.7779   -0.3459 O   0  0  0  0  0  0  0  0  0  0  0  0
   -4.5023   -2.5029    1.5383 N   0  0  0  0  0  0  0  0  0  0  0  0
   -4.4354    1.9700   -2.2142 N   0  0  0  0  0  0  0  0  0  0  0  0
    0.3947    4.8785    0.6318 N   0  0  0  0  0  0  0  0  0  0  0  0
    5.4201   -2.2236   -0.3321 N   0  0  0  0  0  0  0  0  0  0  0  0
    4.3641   -3.5132   -2.0312 N   0  0  0  0  0  0  0  0  0  0  0  0
   -4.4091   -0.3309   -1.3954 C   0  0  0  0  0  0  0  0  0  0  0  0
   -4.1070    1.1403   -1.0494 C   0  0  1  0  0  0  0  0  0  0  0  0
   -4.1710   -1.2781   -0.2532 C   0  0  0  0  0  0  0  0  0  0  0  0
   -2.9596   -1.9374    0.0291 C   0  0  0  0  0  0  0  0  0  0  0  0
   -2.6464    1.4020   -0.6579 C   0  0  0  0  0  0  0  0  0  0  0  0
   -3.1920   -2.7091    1.1696 C   0  0  0  0  0  0  0  0  0  0  0  0
   -5.1046   -1.6300    0.6725 C   0  0  0  0  0  0  0  0  0  0  0  0
   -1.6801   -1.9664   -0.5602 C   0  0  0  0  0  0  0  0  0  0  0  0
   -2.2048   -3.5116    1.7525 C   0  0  0  0  0  0  0  0  0  0  0  0
   -0.6827   -2.7644    0.0119 C   0  0  0  0  0  0  0  0  0  0  0  0
   -0.9433   -3.5244    1.1506 C   0  0  0  0  0  0  0  0  0  0  0  0
   -1.1538    3.1391   -0.0175 C   0  0  0  0  0  0  0  0  0  0  0  0
    2.2498    1.6545    0.3907 C   0  0  0  0  0  0  0  0  0  0  0  0
    1.1594    2.6049    0.3513 C   0  0  0  0  0  0  0  0  0  0  0  0
   -0.1262    2.2029    0.0121 C   0  0  0  0  0  0  0  0  0  0  0  0
    3.2876   -0.3877   -0.4267 C   0  0  0  0  0  0  0  0  0  0  0  0
    2.2363    0.5432   -0.4540 C   0  0  0  0  0  0  0  0  0  0  0  0
    4.3600   -0.1856    0.4664 C   0  0  0  0  0  0  0  0  0  0  0  0
    3.3109    1.8507    1.2714 C   0  0  0  0  0  0  0  0  0  0  0  0
   -0.8441    4.4525    0.2976 C   0  0  0  0  0  0  0  0  0  0  0  0
    4.3634    0.9364    1.3116 C   0  0  0  0  0  0  0  0  0  0  0  0
    1.3678    3.9402    0.6500 C   0  0  0  0  0  0  0  0  0  0  0  0
    3.3032   -1.5117   -1.2607 C   0  0  0  0  0  0  0  0  0  0  0  0
    5.3868   -1.1319    0.4650 C   0  0  0  0  0  0  0  0  0  0  0  0
    4.3771   -2.3843   -1.1741 C   0  0  0  0  0  0  0  0  0  0  0  0
   -5.4573   -0.4250   -1.7122 H   0  0  0  0  0  0  0  0  0  0  0  0
   -3.8061   -0.6456   -2.2578 H   0  0  0  0  0  0  0  0  0  0  0  0
   -4.7509    1.4652   -0.2223 H   0  0  0  0  0  0  0  0  0  0  0  0
   -2.4186    0.8109    0.2354 H   0  0  0  0  0  0  0  0  0  0  0  0
   -2.0063    1.0964   -1.4962 H   0  0  0  0  0  0  0  0  0  0  0  0
   -6.1396   -1.3478    0.8064 H   0  0  0  0  0  0  0  0  0  0  0  0
   -4.9535   -2.9339    2.3333 H   0  0  0  0  0  0  0  0  0  0  0  0
   -1.4582   -1.3848   -1.4502 H   0  0  0  0  0  0  0  0  0  0  0  0
   -4.2849    2.9521   -1.9866 H   0  0  0  0  0  0  0  0  0  0  0  0
   -5.4257    1.8742   -2.4351 H   0  0  0  0  0  0  0  0  0  0  0  0
   -2.4066   -4.1035    2.6390 H   0  0  0  0  0  0  0  0  0  0  0  0
    0.3056   -2.7915   -0.4388 H   0  0  0  0  0  0  0  0  0  0  0  0
   -0.1538   -4.1371    1.5782 H   0  0  0  0  0  0  0  0  0  0  0  0
   -0.3111    1.1535   -0.1828 H   0  0  0  0  0  0  0  0  0  0  0  0
    1.4349    0.3856   -1.1732 H   0  0  0  0  0  0  0  0  0  0  0  0
    3.3474    2.6866    1.9648 H   0  0  0  0  0  0  0  0  0  0  0  0
    5.1814    1.1009    2.0092 H   0  0  0  0  0  0  0  0  0  0  0  0
   -1.6067    5.2249    0.2900 H   0  0  0  0  0  0  0  0  0  0  0  0
    2.3435    4.3464    0.8971 H   0  0  0  0  0  0  0  0  0  0  0  0
    2.4913   -1.6948   -1.9600 H   0  0  0  0  0  0  0  0  0  0  0  0
    6.2421   -1.0362    1.1283 H   0  0  0  0  0  0  0  0  0  0  0  0
    3.4690   -3.8832   -2.3266 H   0  0  0  0  0  0  0  0  0  0  0  0
    5.1469   -4.1515   -1.9610 H   0  0  0  0  0  0  0  0  0  0  0  0
  1 11  1  0  0  0  0
  1 18  1  0  0  0  0
  2 12  1  0  0  0  0
  2 13  1  0  0  0  0
  2 38  1  0  0  0  0
  3  8  1  0  0  0  0
  3 40  1  0  0  0  0
  3 41  1  0  0  0  0
  4 26  1  0  0  0  0
  4 28  2  0  0  0  0
  5 30  1  0  0  0  0
  5 31  2  0  0  0  0
  6 31  1  0  0  0  0
  6 53  1  0  0  0  0
  6 54  1  0  0  0  0
  7  8  1  0  0  0  0
  7  9  1  0  0  0  0
  7 32  1  0  0  0  0
  7 33  1  0  0  0  0
  8 11  1  0  0  0  0
  8 34  1  0  0  0  0
  9 10  1  0  0  0  0
  9 13  2  0  0  0  0
 10 12  1  0  0  0  0
 10 14  2  0  0  0  0
 11 35  1  0  0  0  0
 11 36  1  0  0  0  0
 12 15  2  0  0  0  0
 13 37  1  0  0  0  0
 14 16  1  0  0  0  0
 14 39  1  0  0  0  0
 15 17  1  0  0  0  0
 15 42  1  0  0  0  0
 16 17  2  0  0  0  0
 16 43  1  0  0  0  0
 17 44  1  0  0  0  0
 18 21  1  0  0  0  0
 18 26  2  0  0  0  0
 19 20  1  0  0  0  0
 19 23  2  0  0  0  0
 19 25  1  0  0  0  0
 20 21  2  0  0  0  0
 20 28  1  0  0  0  0
 21 45  1  0  0  0  0
 22 23  1  0  0  0  0
 22 24  1  0  0  0  0
 22 29  2  0  0  0  0
 23 46  1  0  0  0  0
 24 27  1  0  0  0  0
 24 30  2  0  0  0  0
 25 27  2  0  0  0  0
 25 47  1  0  0  0  0
 26 49  1  0  0  0  0
 27 48  1  0  0  0  0
 28 50  1  0  0  0  0
 29 31  1  0  0  0  0
 29 51  1  0  0  0  0
 30 52  1  0  0  0  0
M  END
> <PUBCHEM_COMPOUND_CID>
15604547

> <PUBCHEM_CONFORMER_RMSD>
1

> <PUBCHEM_CONFORMER_DIVERSEORDER>
2
337
134
136
189
219
64
287
284
188
409
193
160
232
237
422
249
317
348
43
11
129
109
273
235
394
62
170
239
408
152
421
176
400
177
169
382
315
7
56
289
257
125
381
29
217
46
411
142
39
272
413
295
388
51
77
95
162
218
269
367
21
186
397
358
404
33
22
362
119
361
201
406
429
346
357
182
161
305
209
114
163
238
30
75
187
436
314
80
428
385
131
309
334
338
254
420
25
351
158
93
19
10
230
252
191
398
76
293
405
41
180
190
390
3
282
265
48
185
61
216
374
154
85
380
204
122
44
35
165
331
100
31
347
329
1
65
391
118
97
320
253
304
386
107
135
45
68
266
280
120
53
87
141
389
8
310
275
328
290
49
246
384
227
210
184
401
42
350
373
418
240
101
395
40
164
301
195
57
151
416
258
292
89
148
414
153
402
281
407
330
13
81
173
147
297
223
26
344
248
50
279
78
425
215
91
54
194
226
144
371
150
116
243
28
370
325
276
335
426
66
438
179
288
311
308
403
213
203
140
366
199
111
9
34
236
24
103
47
59
341
434
365
206
410
200
15
432
271
32
261
242
220
110
67
4
274
214
368
251
231
392
431
383
323
244
20
439
372
318
356
197
419
98
306
137
16
84
417
378
192
181
430
175
113
241
345
6
353
159
255
270
278
202
387
128
352
60
377
298
300
423
359
427
12
262
326
247
321
5
260
354
324
198
70
364
83
316
245
224
399
312
208
106
437
393
264
115
211
143
156
166
360
72
196
73
157
424
183
313
108
221
155
94
342
263
146
268
363
283
285
63
23
396
303
112
130
222
296
92
277
90
74
256
178
291
17
412
228
79
349
376
415
55
36
138
294
86
307
327
259
37
38
52
336
339
102
126
379
174
435
207
233
172
82
96
139
205
27
340
168
123
14
88
234
104
319
58
250
333
355
267
332
286
127
132
145
433
229
167
299
149
69
375
124
71
322
133
302
99
18
343
105
212
225
117
171
121
369

> <PUBCHEM_MMFF94_PARTIAL_CHARGES>
44
1 -0.36
11 0.28
12 -0.15
13 -0.3
14 -0.15
15 -0.15
16 -0.15
17 -0.15
18 0.08
2 0.03
21 -0.15
23 -0.15
25 -0.15
26 0.16
27 -0.15
28 0.16
29 -0.15
3 -0.99
30 0.16
31 0.41
37 0.15
38 0.27
39 0.15
4 -0.62
40 0.36
41 0.36
42 0.15
43 0.15
44 0.15
45 0.15
46 0.15
47 0.15
48 0.15
49 0.15
5 -0.62
50 0.15
51 0.15
52 0.15
53 0.4
54 0.4
6 -0.9
7 0.18
8 0.27
9 -0.18

> <PUBCHEM_EFFECTIVE_ROTOR_COUNT>
6

> <PUBCHEM_PHARMACOPHORE_FEATURES>
13
1 1 acceptor
1 2 cation
1 2 donor
1 3 cation
1 3 donor
1 4 acceptor
1 6 donor
3 5 6 31 cation
5 2 9 10 12 13 rings
6 10 12 14 15 16 17 rings
6 19 22 23 24 25 27 rings
6 4 18 20 21 26 28 rings
6 5 22 24 29 30 31 rings

> <PUBCHEM_HEAVY_ATOM_COUNT>
31

> <PUBCHEM_ATOM_DEF_STEREO_COUNT>
1

> <PUBCHEM_ATOM_UDEF_STEREO_COUNT>
0

> <PUBCHEM_BOND_DEF_STEREO_COUNT>
0

> <PUBCHEM_BOND_UDEF_STEREO_COUNT>
0

> <PUBCHEM_ISOTOPIC_ATOM_COUNT>
0

> <PUBCHEM_COMPONENT_COUNT>
1

> <PUBCHEM_CACTVS_TAUTO_COUNT>
2

> <PUBCHEM_CONFORMER_ID>
00EE1B4300000002

> <PUBCHEM_MMFF94_ENERGY>
94.2122

> <PUBCHEM_FEATURE_SELFOVERLAP>
66.092

> <PUBCHEM_SHAPE_FINGERPRINT>
108634 29 18340205181456512774
11135609 12 18335986445113205824
11828532 37 17897165951900586723
12202916 173 18197468823515753278
12422481 6 18196963083159718019
12645989 146 18342455979931583759
12788726 201 18335990787884324066
13402501 40 18411133649613387047
1361 2 16177627858273611539
140371 6 18412541046252072776
14363568 33 17834696146200058300
144659 178 18337115562420071236
14659021 117 18266736879608878384
14725015 67 18189322619739585003
150020 26 18124035899334568689
15081414 286 18341055236930176466
15264996 44 18197797684682233023
15274700 256 18334572453082872138
15351339 4 18045487626407772299
15361156 5 18343299237036241124
15927050 60 17549536311189206757
16067689 391 17267800767249728862
16112460 7 18341905090794650585
17627616 140 17685772420013731931
19315092 285 15695431274693002293
19611394 137 18340192052305933600
20764821 26 18266202576522428845
21133410 62 17683531637466712461
22223350 30 17754760521875682155
23572383 38 18340190968955867560
395649 100 18193288399710795438
437795 96 18122894593474948272
4403749 210 16826970765669868385
4461854 278 16172026928776618227
463206 1 18052823537723101368
508706 21 18266743480456355190
5365585 94 18339925922102535181
613672 6 18340188748516129072
6433294 58 18120651598197091713
7399639 24 16967742347116239946

> <PUBCHEM_SHAPE_MULTIPOLES>
607.19
11.47
6.45
1.52
2.46
4.18
-0.25
-8.36
-1.26
-0.18
1.04
-0.42
-0.84
4.44

> <PUBCHEM_SHAPE_SELFOVERLAP>
1357.583

> <PUBCHEM_SHAPE_VOLUME>
321.7

> <PUBCHEM_COORDINATE_TYPE>
2
5
10

$$$$
