11268820
  -OEChem-10052120433D

 47 50  0     0  0  0  0  0  0999 V2000
   -7.5977    2.2155    0.0959 F   0  0  0  0  0  0  0  0  0  0  0  0
   -2.1414   -0.7572    1.8893 O   0  0  0  0  0  0  0  0  0  0  0  0
    5.6531    2.5880    0.0394 N   0  0  0  0  0  0  0  0  0  0  0  0
    4.4414    3.0540    0.3847 N   0  0  0  0  0  0  0  0  0  0  0  0
   -3.3024   -1.2550   -0.0900 N   0  0  0  0  0  0  0  0  0  0  0  0
    2.3325    1.9588    0.5916 N   0  0  0  0  0  0  0  0  0  0  0  0
    4.0634   -0.5418   -0.2834 C   0  0  0  0  0  0  0  0  0  0  0  0
    4.3718    0.8114   -0.0661 C   0  0  0  0  0  0  0  0  0  0  0  0
    2.7156   -1.0261   -0.1058 C   0  0  0  0  0  0  0  0  0  0  0  0
    5.6794    1.2491   -0.2440 C   0  0  0  0  0  0  0  0  0  0  0  0
    0.1067   -1.9647    0.2369 C   0  0  0  0  0  0  0  0  0  0  0  0
    5.0921   -1.4079   -0.6744 C   0  0  0  0  0  0  0  0  0  0  0  0
    2.2993   -1.5012    1.1398 C   0  0  0  0  0  0  0  0  0  0  0  0
    1.8222   -1.0222   -1.1795 C   0  0  0  0  0  0  0  0  0  0  0  0
    3.6645    1.9704    0.3196 C   0  0  0  0  0  0  0  0  0  0  0  0
   -1.2861   -2.4652    0.4196 C   0  0  0  0  0  0  0  0  0  0  0  0
    0.9968   -1.9699    1.3110 C   0  0  0  0  0  0  0  0  0  0  0  0
    0.5196   -1.4907   -1.0085 C   0  0  0  0  0  0  0  0  0  0  0  0
    6.7197    0.4024   -0.6334 C   0  0  0  0  0  0  0  0  0  0  0  0
    6.3969   -0.9418   -0.8463 C   0  0  0  0  0  0  0  0  0  0  0  0
   -2.2806   -1.3886    0.8466 C   0  0  0  0  0  0  0  0  0  0  0  0
   -4.4029   -0.3662   -0.0455 C   0  0  0  0  0  0  0  0  0  0  0  0
   -5.3264   -0.3789   -1.0775 C   0  0  0  0  0  0  0  0  0  0  0  0
   -6.4120    0.4960   -1.0325 C   0  0  0  0  0  0  0  0  0  0  0  0
   -4.5335    0.4962    1.0302 C   0  0  0  0  0  0  0  0  0  0  0  0
   -6.5581    1.3712    0.0439 C   0  0  0  0  0  0  0  0  0  0  0  0
   -5.6190    1.3711    1.0752 C   0  0  0  0  0  0  0  0  0  0  0  0
   -7.4149    0.4935   -2.1365 C   0  0  0  0  0  0  0  0  0  0  0  0
    4.8863   -2.4620   -0.8506 H   0  0  0  0  0  0  0  0  0  0  0  0
    2.9797   -1.5115    1.9883 H   0  0  0  0  0  0  0  0  0  0  0  0
    2.1269   -0.6552   -2.1569 H   0  0  0  0  0  0  0  0  0  0  0  0
   -1.6139   -2.9729   -0.4959 H   0  0  0  0  0  0  0  0  0  0  0  0
   -1.3089   -3.2436    1.1939 H   0  0  0  0  0  0  0  0  0  0  0  0
    0.6871   -2.3345    2.2869 H   0  0  0  0  0  0  0  0  0  0  0  0
   -0.1654   -1.4794   -1.8523 H   0  0  0  0  0  0  0  0  0  0  0  0
    7.7324    0.7662   -0.7661 H   0  0  0  0  0  0  0  0  0  0  0  0
    7.1770   -1.6352   -1.1506 H   0  0  0  0  0  0  0  0  0  0  0  0
    6.4271    3.2403    0.0159 H   0  0  0  0  0  0  0  0  0  0  0  0
   -3.2750   -1.8542   -0.9117 H   0  0  0  0  0  0  0  0  0  0  0  0
    1.8484    2.8079    0.8675 H   0  0  0  0  0  0  0  0  0  0  0  0
    1.7384    1.1407    0.5439 H   0  0  0  0  0  0  0  0  0  0  0  0
   -5.2097   -1.0636   -1.9139 H   0  0  0  0  0  0  0  0  0  0  0  0
   -3.8516    0.5572    1.8651 H   0  0  0  0  0  0  0  0  0  0  0  0
   -5.7343    2.0531    1.9126 H   0  0  0  0  0  0  0  0  0  0  0  0
   -7.0692   -0.0861   -2.9991 H   0  0  0  0  0  0  0  0  0  0  0  0
   -8.3564    0.0564   -1.7887 H   0  0  0  0  0  0  0  0  0  0  0  0
   -7.6032    1.5142   -2.4861 H   0  0  0  0  0  0  0  0  0  0  0  0
  1 26  1  0  0  0  0
  2 21  2  0  0  0  0
  3  4  1  0  0  0  0
  3 10  1  0  0  0  0
  3 38  1  0  0  0  0
  4 15  2  0  0  0  0
  5 21  1  0  0  0  0
  5 22  1  0  0  0  0
  5 39  1  0  0  0  0
  6 15  1  0  0  0  0
  6 40  1  0  0  0  0
  6 41  1  0  0  0  0
  7  8  2  0  0  0  0
  7  9  1  0  0  0  0
  7 12  1  0  0  0  0
  8 10  1  0  0  0  0
  8 15  1  0  0  0  0
  9 13  2  0  0  0  0
  9 14  1  0  0  0  0
 10 19  2  0  0  0  0
 11 16  1  0  0  0  0
 11 17  2  0  0  0  0
 11 18  1  0  0  0  0
 12 20  2  0  0  0  0
 12 29  1  0  0  0  0
 13 17  1  0  0  0  0
 13 30  1  0  0  0  0
 14 18  2  0  0  0  0
 14 31  1  0  0  0  0
 16 21  1  0  0  0  0
 16 32  1  0  0  0  0
 16 33  1  0  0  0  0
 17 34  1  0  0  0  0
 18 35  1  0  0  0  0
 19 20  1  0  0  0  0
 19 36  1  0  0  0  0
 20 37  1  0  0  0  0
 22 23  2  0  0  0  0
 22 25  1  0  0  0  0
 23 24  1  0  0  0  0
 23 42  1  0  0  0  0
 24 26  2  0  0  0  0
 24 28  1  0  0  0  0
 25 27  2  0  0  0  0
 25 43  1  0  0  0  0
 26 27  1  0  0  0  0
 27 44  1  0  0  0  0
 28 45  1  0  0  0  0
 28 46  1  0  0  0  0
 28 47  1  0  0  0  0
M  END
> <PUBCHEM_COMPOUND_CID>
11268820

> <PUBCHEM_CONFORMER_RMSD>
0.8

> <PUBCHEM_CONFORMER_DIVERSEORDER>
2
27
34
14
41
22
31
21
35
3
24
25
32
33
15
42
16
8
13
23
7
30
17
26
39
37
12
18
11
1
4
29
36
28
38
10
40
19
9
20
6
5

> <PUBCHEM_MMFF94_PARTIAL_CHARGES>
39
1 -0.19
10 -0.15
11 -0.14
12 -0.15
13 -0.15
14 -0.15
15 0.37
16 0.2
17 -0.15
18 -0.15
19 -0.15
2 -0.57
20 -0.15
21 0.57
22 0.12
23 -0.15
24 -0.14
25 -0.15
26 0.19
27 -0.15
28 0.14
29 0.15
3 0.3
30 0.15
31 0.15
34 0.15
35 0.15
36 0.15
37 0.15
38 0.27
39 0.37
4 -0.71
40 0.4
41 0.4
42 0.15
43 0.15
44 0.15
5 -0.55
6 -0.88

> <PUBCHEM_EFFECTIVE_ROTOR_COUNT>
5

> <PUBCHEM_PHARMACOPHORE_FEATURES>
9
1 2 acceptor
1 3 donor
1 5 donor
1 6 donor
3 4 6 15 cation
5 3 4 8 10 15 rings
6 22 23 24 25 26 27 rings
6 7 8 10 12 19 20 rings
6 9 11 13 14 17 18 rings

> <PUBCHEM_HEAVY_ATOM_COUNT>
28

> <PUBCHEM_ATOM_DEF_STEREO_COUNT>
0

> <PUBCHEM_ATOM_UDEF_STEREO_COUNT>
0

> <PUBCHEM_BOND_DEF_STEREO_COUNT>
0

> <PUBCHEM_BOND_UDEF_STEREO_COUNT>
0

> <PUBCHEM_ISOTOPIC_ATOM_COUNT>
0

> <PUBCHEM_COMPONENT_COUNT>
1

> <PUBCHEM_CACTVS_TAUTO_COUNT>
10

> <PUBCHEM_CONFORMER_ID>
00ABF2D400000002

> <PUBCHEM_MMFF94_ENERGY>
78.022

> <PUBCHEM_FEATURE_SELFOVERLAP>
45.763

> <PUBCHEM_SHAPE_FINGERPRINT>
10 15 15357705188304925895
10006869 2 17968924306454041910
10209105 3 18194404382812860430
10763959 59 18335987549257261428
11089746 13 18410293614308896446
11386260 185 18202289100442192324
12633257 1 15140965105462275467
12778500 126 17385710401805549608
13402501 40 18408323289260944837
13560911 23 15140971651894183629
13668630 136 12679169510870367581
13690498 29 17630877412945096455
13878862 14 18188192239633207102
14251764 18 12324249364636667939
14394314 77 18337113350992532933
14556957 393 16988574493596311193
14681490 219 18343863290933783961
14950920 106 13695879155436305023
15142383 8 18260266365907267500
15183329 4 18272653432717446809
15238133 3 16950291719004154814
15510800 12 12175615222504759629
15537594 2 12035729859781670026
16110190 28 11458424643856628385
18335252 114 18412823560752559982
190975 80 8502368923460360252
20105231 36 12396293743703928552
20715895 44 18342741832159593106
20721686 124 18201158737178957335
21033648 144 18186795869157590039
21033648 29 17822575014140918818
21279426 13 18411427241067230170
21298829 104 18409169883740560877
21774942 28 18131072576400487600
2748736 6 18408879659551172561
2838139 119 18413392020927261249
3388396 114 16127254596577659816
3472631 163 18412826880672784231
4066623 53 16558745715784777000
4144715 1 18191036788094929482
50009960 94 11886301698757197268
5104073 3 17676485068437289403
5385378 56 17530963536433574194
5718773 13 11527409064783782756
58902169 19 17917424315548304199
7970288 3 9727631696400799353
999808 66 9943807794318947981

> <PUBCHEM_SHAPE_MULTIPOLES>
543.16
21.38
2.73
1.36
20.25
1.05
0.12
13.37
6.79
-2.2
-0.63
1.74
-0.24
0.54

> <PUBCHEM_SHAPE_SELFOVERLAP>
1208.467

> <PUBCHEM_SHAPE_VOLUME>
291.3

> <PUBCHEM_COORDINATE_TYPE>
2
5
10

$$$$
