49830383
  -OEChem-10062121553D

 25 27  0     0  0  0  0  0  0999 V2000
   -5.1182   -0.9131   -0.0005 O   0  0  0  0  0  0  0  0  0  0  0  0
   -2.7889   -1.3424   -0.0005 N   0  0  0  0  0  0  0  0  0  0  0  0
   -3.4944    0.8131    0.0000 N   0  0  0  0  0  0  0  0  0  0  0  0
   -1.2774    1.8740    0.0010 N   0  0  0  0  0  0  0  0  0  0  0  0
   -1.6742   -0.5076   -0.0002 C   0  0  0  0  0  0  0  0  0  0  0  0
    0.5533    0.2511    0.0006 C   0  0  0  0  0  0  0  0  0  0  0  0
   -2.0946    0.8138    0.0003 C   0  0  0  0  0  0  0  0  0  0  0  0
   -0.3364   -0.8212   -0.0003 C   0  0  0  0  0  0  0  0  0  0  0  0
    1.9802    0.0222    0.0001 C   0  0  0  0  0  0  0  0  0  0  0  0
    0.0428    1.5557    0.0014 C   0  0  0  0  0  0  0  0  0  0  0  0
   -3.9566   -0.5318   -0.0006 C   0  0  0  0  0  0  0  0  0  0  0  0
    2.6688   -0.0895    1.2079 C   0  0  0  0  0  0  0  0  0  0  0  0
    2.6687   -0.0869   -1.2080 C   0  0  0  0  0  0  0  0  0  0  0  0
    4.0462   -0.3104    1.2077 C   0  0  0  0  0  0  0  0  0  0  0  0
    4.0460   -0.3077   -1.2084 C   0  0  0  0  0  0  0  0  0  0  0  0
    4.7348   -0.4194   -0.0005 C   0  0  0  0  0  0  0  0  0  0  0  0
    0.0014   -1.8517   -0.0008 H   0  0  0  0  0  0  0  0  0  0  0  0
   -2.7583   -2.3544   -0.0007 H   0  0  0  0  0  0  0  0  0  0  0  0
   -4.0682    1.6471    0.0003 H   0  0  0  0  0  0  0  0  0  0  0  0
    0.7060    2.4171    0.0019 H   0  0  0  0  0  0  0  0  0  0  0  0
    2.1475   -0.0069    2.1587 H   0  0  0  0  0  0  0  0  0  0  0  0
    2.1473   -0.0022   -2.1586 H   0  0  0  0  0  0  0  0  0  0  0  0
    4.5825   -0.3974    2.1480 H   0  0  0  0  0  0  0  0  0  0  0  0
    4.5823   -0.3927   -2.1490 H   0  0  0  0  0  0  0  0  0  0  0  0
    5.8071   -0.5914   -0.0008 H   0  0  0  0  0  0  0  0  0  0  0  0
  1 11  2  0  0  0  0
  2  5  1  0  0  0  0
  2 11  1  0  0  0  0
  2 18  1  0  0  0  0
  3  7  1  0  0  0  0
  3 11  1  0  0  0  0
  3 19  1  0  0  0  0
  4  7  1  0  0  0  0
  4 10  2  0  0  0  0
  5  7  2  0  0  0  0
  5  8  1  0  0  0  0
  6  8  2  0  0  0  0
  6  9  1  0  0  0  0
  6 10  1  0  0  0  0
  8 17  1  0  0  0  0
  9 12  2  0  0  0  0
  9 13  1  0  0  0  0
 10 20  1  0  0  0  0
 12 14  1  0  0  0  0
 12 21  1  0  0  0  0
 13 15  2  0  0  0  0
 13 22  1  0  0  0  0
 14 16  2  0  0  0  0
 14 23  1  0  0  0  0
 15 16  1  0  0  0  0
 15 24  1  0  0  0  0
 16 25  1  0  0  0  0
M  END
> <PUBCHEM_COMPOUND_CID>
49830383

> <PUBCHEM_CONFORMER_RMSD>
0.6

> <PUBCHEM_CONFORMER_DIVERSEORDER>
1
2

> <PUBCHEM_MMFF94_PARTIAL_CHARGES>
23
1 -0.57
10 0.16
11 0.69
12 -0.15
13 -0.15
14 -0.15
15 -0.15
16 -0.15
17 0.15
18 0.37
19 0.37
2 -0.55
20 0.15
21 0.15
22 0.15
23 0.15
24 0.15
25 0.15
3 -0.55
4 -0.62
5 0.12
7 0.43
8 -0.15

> <PUBCHEM_EFFECTIVE_ROTOR_COUNT>
1

> <PUBCHEM_PHARMACOPHORE_FEATURES>
7
1 1 acceptor
1 2 donor
1 3 donor
1 4 acceptor
5 2 3 5 7 11 rings
6 4 5 6 7 8 10 rings
6 9 12 13 14 15 16 rings

> <PUBCHEM_HEAVY_ATOM_COUNT>
16

> <PUBCHEM_ATOM_DEF_STEREO_COUNT>
0

> <PUBCHEM_ATOM_UDEF_STEREO_COUNT>
0

> <PUBCHEM_BOND_DEF_STEREO_COUNT>
0

> <PUBCHEM_BOND_UDEF_STEREO_COUNT>
0

> <PUBCHEM_ISOTOPIC_ATOM_COUNT>
0

> <PUBCHEM_COMPONENT_COUNT>
1

> <PUBCHEM_CACTVS_TAUTO_COUNT>
5

> <PUBCHEM_CONFORMER_ID>
02F859EF00000001

> <PUBCHEM_MMFF94_ENERGY>
57.6617

> <PUBCHEM_FEATURE_SELFOVERLAP>
35.695

> <PUBCHEM_SHAPE_FINGERPRINT>
11046707 91 18408885144276754225
11132069 177 18343019978030136597
11543360 7 15719677657679214547
11578080 2 17460283695206374268
12032990 46 18343867718622293045
12236239 1 17749107769023745042
12251169 10 13830133888357399932
12403814 3 13398632732233588379
13288520 33 18410857646335191278
13581323 91 18409725141206373786
13675066 3 17490150820135015025
13760787 19 17240483619747126883
13760787 5 17458350727577532453
13862211 1 18410569617776911743
14115302 16 17676492786609115634
14252887 29 17704078386741401558
14289901 80 16271921623172716410
14386348 63 17917996070517140406
14993402 34 17530688714302532678
15219456 202 17489867107707170356
15342168 16 15983957411056542784
15536298 74 18340486784865692584
15848700 24 18343579668040122397
16752209 62 18261101950876826059
16945 1 18410855430274608161
17804303 29 18341894108399250177
18175812 5 17632293492919450452
18186145 218 17458061598968964044
18222031 100 18342453781334569327
19026448 4 17060339595749570841
19026448 5 17022902324335425821
19141452 34 17632295718097943759
19784866 240 17023174973655665994
200 152 16732980916617109836
20028762 73 17986676085543090023
20279233 1 17846780702296431094
20510252 161 18202282459467938032
21267235 1 18335991925417420843
22646028 1 17894909616215372554
22854114 59 16917348138711659378
2297311 6 18272380750008393404
23048698 100 16950003625698689670
23402539 116 18411130320934364767
23402655 69 15068339008172839622
23532345 42 18343017808987327524
23536379 177 16009023974098895711
23557571 272 18202009789379808324
23559900 14 18271528581510637806
26918003 58 16343985814333463734
43471831 8 18263359205099251362
449060 50 16916779725723355144
465052 167 18261965153763243931
495365 180 13551466003877902624
5104073 3 18410577309630667209
5374978 207 18410288138399362232
573450 72 18115017511621592608
69090 78 17132108061047360726
7364860 26 18199188584414473432
77492 1 17676210135148852480
8863177 126 17607822891725129075

> <PUBCHEM_SHAPE_MULTIPOLES>
308.46
9.33
1.25
0.98
1.31
0.4
0
-2.74
0
1.01
0
-1.3
-0.07
0

> <PUBCHEM_SHAPE_SELFOVERLAP>
690.322

> <PUBCHEM_SHAPE_VOLUME>
160.5

> <PUBCHEM_COORDINATE_TYPE>
2
5
10

$$$$
