21362687
  -OEChem-10062122043D

 37 40  0     0  0  0  0  0  0999 V2000
    1.1877   -4.4131    0.0176 Cl  0  0  0  0  0  0  0  0  0  0  0  0
   -2.4744   -1.1507   -0.0349 O   0  0  0  0  0  0  0  0  0  0  0  0
    2.1905    1.3416   -0.0136 N   0  0  0  0  0  0  0  0  0  0  0  0
   -0.6692    0.3582   -0.0295 N   0  0  0  0  0  0  0  0  0  0  0  0
    5.7602    2.2700    0.0063 N   0  0  0  0  0  0  0  0  0  0  0  0
   -5.0112    0.7149   -1.1999 N   0  0  0  0  0  0  0  0  0  0  0  0
    1.7525    0.0380   -0.0077 C   0  0  0  0  0  0  0  0  0  0  0  0
    2.8841   -0.7784    0.0075 C   0  0  0  0  0  0  0  0  0  0  0  0
    4.0294    0.0793    0.0108 C   0  0  0  0  0  0  0  0  0  0  0  0
    3.5631    1.3934   -0.0031 C   0  0  0  0  0  0  0  0  0  0  0  0
    0.4498   -0.4740   -0.0147 C   0  0  0  0  0  0  0  0  0  0  0  0
    2.7061   -2.1779    0.0157 C   0  0  0  0  0  0  0  0  0  0  0  0
    0.2996   -1.8634   -0.0059 C   0  0  0  0  0  0  0  0  0  0  0  0
    5.4162   -0.1373    0.0238 C   0  0  0  0  0  0  0  0  0  0  0  0
    1.4096   -2.7045    0.0090 C   0  0  0  0  0  0  0  0  0  0  0  0
    4.4242    2.4831   -0.0050 C   0  0  0  0  0  0  0  0  0  0  0  0
   -2.0256   -0.0088   -0.0375 C   0  0  0  0  0  0  0  0  0  0  0  0
    6.2165    0.9973    0.0207 C   0  0  0  0  0  0  0  0  0  0  0  0
   -2.9245    1.2175   -0.0533 C   0  0  0  0  0  0  0  0  0  0  0  0
   -4.3929    0.8847   -0.0098 C   0  0  0  0  0  0  0  0  0  0  0  0
   -5.0267    0.7709    1.2170 C   0  0  0  0  0  0  0  0  0  0  0  0
   -6.3825    0.4626    1.2227 C   0  0  0  0  0  0  0  0  0  0  0  0
   -6.3290    0.4163   -1.1547 C   0  0  0  0  0  0  0  0  0  0  0  0
   -7.0535    0.2803    0.0185 C   0  0  0  0  0  0  0  0  0  0  0  0
    1.5868    2.1520   -0.0245 H   0  0  0  0  0  0  0  0  0  0  0  0
    3.5721   -2.8348    0.0271 H   0  0  0  0  0  0  0  0  0  0  0  0
   -0.6680   -2.3478   -0.0103 H   0  0  0  0  0  0  0  0  0  0  0  0
    5.8473   -1.1318    0.0350 H   0  0  0  0  0  0  0  0  0  0  0  0
   -0.4703    1.3558   -0.0354 H   0  0  0  0  0  0  0  0  0  0  0  0
    4.0862    3.5110   -0.0161 H   0  0  0  0  0  0  0  0  0  0  0  0
   -2.7127    1.7828   -0.9696 H   0  0  0  0  0  0  0  0  0  0  0  0
   -2.6605    1.8668    0.7904 H   0  0  0  0  0  0  0  0  0  0  0  0
    7.2982    0.9023    0.0297 H   0  0  0  0  0  0  0  0  0  0  0  0
   -4.4940    0.9131    2.1511 H   0  0  0  0  0  0  0  0  0  0  0  0
   -6.9152    0.3640    2.1637 H   0  0  0  0  0  0  0  0  0  0  0  0
   -6.8057    0.2839   -2.1203 H   0  0  0  0  0  0  0  0  0  0  0  0
   -8.1101    0.0393   -0.0010 H   0  0  0  0  0  0  0  0  0  0  0  0
  1 15  1  0  0  0  0
  2 17  2  0  0  0  0
  3  7  1  0  0  0  0
  3 10  1  0  0  0  0
  3 25  1  0  0  0  0
  4 11  1  0  0  0  0
  4 17  1  0  0  0  0
  4 29  1  0  0  0  0
  5 16  2  0  0  0  0
  5 18  1  0  0  0  0
  6 20  1  0  0  0  0
  6 23  2  0  0  0  0
  7  8  2  0  0  0  0
  7 11  1  0  0  0  0
  8  9  1  0  0  0  0
  8 12  1  0  0  0  0
  9 10  2  0  0  0  0
  9 14  1  0  0  0  0
 10 16  1  0  0  0  0
 11 13  2  0  0  0  0
 12 15  2  0  0  0  0
 12 26  1  0  0  0  0
 13 15  1  0  0  0  0
 13 27  1  0  0  0  0
 14 18  2  0  0  0  0
 14 28  1  0  0  0  0
 16 30  1  0  0  0  0
 17 19  1  0  0  0  0
 18 33  1  0  0  0  0
 19 20  1  0  0  0  0
 19 31  1  0  0  0  0
 19 32  1  0  0  0  0
 20 21  2  0  0  0  0
 21 22  1  0  0  0  0
 21 34  1  0  0  0  0
 22 24  2  0  0  0  0
 22 35  1  0  0  0  0
 23 24  1  0  0  0  0
 23 36  1  0  0  0  0
 24 37  1  0  0  0  0
M  END
> <PUBCHEM_COMPOUND_CID>
21362687

> <PUBCHEM_CONFORMER_RMSD>
0.8

> <PUBCHEM_CONFORMER_DIVERSEORDER>
1
29
23
33
34
31
10
35
24
36
28
14
6
32
2
20
38
26
22
4
9
16
41
39
13
25
30
5
27
21
37
40
8
15
18
7
3
12
17
19
11

> <PUBCHEM_MMFF94_PARTIAL_CHARGES>
33
1 -0.18
10 -0.15
11 0.12
12 -0.15
13 -0.15
14 -0.15
15 0.18
16 0.16
17 0.57
18 0.16
19 0.2
2 -0.57
20 0.17
21 -0.15
22 -0.15
23 0.16
24 -0.15
25 0.27
26 0.15
27 0.15
28 0.15
29 0.37
3 0.03
30 0.15
33 0.15
34 0.15
35 0.15
36 0.15
37 0.15
4 -0.55
5 -0.62
6 -0.62
7 -0.15

> <PUBCHEM_EFFECTIVE_ROTOR_COUNT>
4

> <PUBCHEM_PHARMACOPHORE_FEATURES>
10
1 2 acceptor
1 3 cation
1 3 donor
1 4 donor
1 5 acceptor
1 6 acceptor
5 3 7 8 9 10 rings
6 5 9 10 14 16 18 rings
6 6 20 21 22 23 24 rings
6 7 8 11 12 13 15 rings

> <PUBCHEM_HEAVY_ATOM_COUNT>
24

> <PUBCHEM_ATOM_DEF_STEREO_COUNT>
0

> <PUBCHEM_ATOM_UDEF_STEREO_COUNT>
0

> <PUBCHEM_BOND_DEF_STEREO_COUNT>
0

> <PUBCHEM_BOND_UDEF_STEREO_COUNT>
0

> <PUBCHEM_ISOTOPIC_ATOM_COUNT>
0

> <PUBCHEM_COMPONENT_COUNT>
1

> <PUBCHEM_CACTVS_TAUTO_COUNT>
10

> <PUBCHEM_CONFORMER_ID>
0145F7FF00000001

> <PUBCHEM_MMFF94_ENERGY>
60.1488

> <PUBCHEM_FEATURE_SELFOVERLAP>
50.933

> <PUBCHEM_SHAPE_FINGERPRINT>
10 15 17749389303824575488
10090160 65 18410571773412118253
10411042 1 17834395619271545410
10595046 47 18271524209429134977
10693767 8 17987522494768926262
10835480 77 18261668165786699029
11719270 70 18410285887641573698
11796584 16 13614516368311443716
12107183 9 17406842783136265073
12144603 126 18131349710267256285
12236239 1 17703792492238042553
12730499 353 18408046195161217714
12788726 201 17059784304266073761
12925494 130 17840016679121169760
13009979 54 17198826229163413930
13533116 47 18201436922299479699
13631057 29 18128248081970076623
13955234 65 18336828567925309354
146900 427 18343865507004286425
14790565 3 18338519745884369324
15475509 35 16226597482687456242
16993438 75 18118124899413713267
17844677 252 18267871575782556413
17980427 23 17314235642465133654
18335252 98 18408888469441797659
19319366 153 18343295955375323198
19427546 62 18408887373191045290
19489759 90 15791731893733445861
1979834 28 18114189626610556813
20157964 124 18410292492994871303
20554085 129 17845638344808094938
20567600 254 18040148517985877427
21033648 29 18268704094984411552
21049683 118 18193814141792131130
21236236 1 18339079419025747987
21521721 280 18342178898911547488
21623969 137 18334303067378341425
22149856 69 18190767301072763433
22224240 67 18411133662677513568
23522609 53 17631751404192314409
23845131 108 18261110807021263394
239999 70 18200600185334797870
25147074 1 18270944813176227055
335352 9 18411421705561241686
3545911 37 18408042913900980101
4073 2 18113905999786905931
42630746 31 18412827954319493750
4325135 7 18343299267527993837
4340502 62 18408326583484783190
474 4 18411136935331836322
5104073 3 18263357144110373210
5758199 1 18343586252130184625
59755656 215 18335141956016695902
6025842 7 18339921524098559894
621550 34 18187642457901588511
8272917 22 18341615871706730326

> <PUBCHEM_SHAPE_MULTIPOLES>
469.99
17.21
3.08
0.84
19.08
3.82
0.02
-10.76
0.26
-4.63
0.03
1.35
-0.11
-0.07

> <PUBCHEM_SHAPE_SELFOVERLAP>
1040.557

> <PUBCHEM_SHAPE_VOLUME>
252.3

> <PUBCHEM_COORDINATE_TYPE>
2
5
10

$$$$
