10255238
  -OEChem-10062121583D

 66 72  0     0  0  0  0  0  0999 V2000
    5.5481   -3.1383   -0.6985 O   0  0  0  0  0  0  0  0  0  0  0  0
   -9.2517   -0.7818    0.4357 O   0  0  0  0  0  0  0  0  0  0  0  0
   -2.9534    1.4547    1.2853 O   0  0  0  0  0  0  0  0  0  0  0  0
    1.2067    1.6137    0.5563 N   0  0  0  0  0  0  0  0  0  0  0  0
    0.6388   -1.1140    0.6697 N   0  0  0  0  0  0  0  0  0  0  0  0
    6.4434   -0.9793   -0.9100 N   0  0  0  0  0  0  0  0  0  0  0  0
   -6.8075   -0.0198   -0.8080 N   0  0  0  0  0  0  0  0  0  0  0  0
   -3.4014    1.4837   -0.9945 N   0  0  0  0  0  0  0  0  0  0  0  0
    2.1576    0.6907    0.2836 C   0  0  0  0  0  0  0  0  0  0  0  0
    3.4969    1.0456   -0.0761 C   0  0  0  0  0  0  0  0  0  0  0  0
    4.5546    0.1880   -0.3772 C   0  0  0  0  0  0  0  0  0  0  0  0
    1.8741   -0.6760    0.3402 C   0  0  0  0  0  0  0  0  0  0  0  0
    2.9579   -1.5630    0.0313 C   0  0  0  0  0  0  0  0  0  0  0  0
    4.2529   -1.1760   -0.3154 C   0  0  0  0  0  0  0  0  0  0  0  0
    3.2771    2.4934    0.0051 C   0  0  0  0  0  0  0  0  0  0  0  0
    1.9244    2.7883    0.3782 C   0  0  0  0  0  0  0  0  0  0  0  0
    5.9810    0.3884   -0.7635 C   0  0  0  0  0  0  0  0  0  0  0  0
    2.1750   -2.7933    0.2252 C   0  0  0  0  0  0  0  0  0  0  0  0
   -0.1816    1.5472    0.9350 C   0  0  0  0  0  0  0  0  0  0  0  0
    0.8222   -2.4867    0.5980 C   0  0  0  0  0  0  0  0  0  0  0  0
    5.4559   -1.9269   -0.6549 C   0  0  0  0  0  0  0  0  0  0  0  0
    4.1504    3.5844   -0.2168 C   0  0  0  0  0  0  0  0  0  0  0  0
   -1.1083    1.5416   -0.2767 C   0  0  0  0  0  0  0  0  0  0  0  0
    1.4738    4.1090    0.5204 C   0  0  0  0  0  0  0  0  0  0  0  0
    2.5169   -4.1626    0.1105 C   0  0  0  0  0  0  0  0  0  0  0  0
   -0.1245   -3.4940    0.8392 C   0  0  0  0  0  0  0  0  0  0  0  0
    3.6905    4.8969   -0.0720 C   0  0  0  0  0  0  0  0  0  0  0  0
    2.3731    5.1526    0.2908 C   0  0  0  0  0  0  0  0  0  0  0  0
   -2.5729    1.4881    0.1182 C   0  0  0  0  0  0  0  0  0  0  0  0
   -5.3487    0.0033   -0.8924 C   0  0  0  0  0  0  0  0  0  0  0  0
    1.5649   -5.1589    0.3532 C   0  0  0  0  0  0  0  0  0  0  0  0
    0.2650   -4.8278    0.7117 C   0  0  0  0  0  0  0  0  0  0  0  0
   -4.8423    1.4382   -0.9015 C   0  0  0  0  0  0  0  0  0  0  0  0
   -7.2683    0.6159    0.4342 C   0  0  0  0  0  0  0  0  0  0  0  0
   -7.3129   -1.3974   -0.8862 C   0  0  0  0  0  0  0  0  0  0  0  0
   -8.7920    0.5685    0.5061 C   0  0  0  0  0  0  0  0  0  0  0  0
   -8.8355   -1.3966   -0.7841 C   0  0  0  0  0  0  0  0  0  0  0  0
    6.0852    0.9042   -1.7211 H   0  0  0  0  0  0  0  0  0  0  0  0
    6.5610    0.8783    0.0221 H   0  0  0  0  0  0  0  0  0  0  0  0
   -0.3970    2.4688    1.4928 H   0  0  0  0  0  0  0  0  0  0  0  0
   -0.3619    0.8094    1.7177 H   0  0  0  0  0  0  0  0  0  0  0  0
   -0.2466   -0.6715    0.8117 H   0  0  0  0  0  0  0  0  0  0  0  0
    7.3932   -1.2226   -1.1729 H   0  0  0  0  0  0  0  0  0  0  0  0
    5.1849    3.4101   -0.5015 H   0  0  0  0  0  0  0  0  0  0  0  0
   -0.8976    0.6826   -0.9246 H   0  0  0  0  0  0  0  0  0  0  0  0
   -0.9510    2.4454   -0.8788 H   0  0  0  0  0  0  0  0  0  0  0  0
    0.4497    4.3421    0.7936 H   0  0  0  0  0  0  0  0  0  0  0  0
    3.5219   -4.4626   -0.1675 H   0  0  0  0  0  0  0  0  0  0  0  0
   -1.1436   -3.2449    1.1200 H   0  0  0  0  0  0  0  0  0  0  0  0
    4.3721    5.7253   -0.2460 H   0  0  0  0  0  0  0  0  0  0  0  0
    2.0356    6.1807    0.3957 H   0  0  0  0  0  0  0  0  0  0  0  0
   -5.0230   -0.4874   -1.8189 H   0  0  0  0  0  0  0  0  0  0  0  0
   -4.8925   -0.5547   -0.0637 H   0  0  0  0  0  0  0  0  0  0  0  0
    1.8486   -6.2039    0.2593 H   0  0  0  0  0  0  0  0  0  0  0  0
   -7.0028    1.6745    0.4865 H   0  0  0  0  0  0  0  0  0  0  0  0
   -6.8429    0.1060    1.3083 H   0  0  0  0  0  0  0  0  0  0  0  0
   -6.8934   -2.0035   -0.0726 H   0  0  0  0  0  0  0  0  0  0  0  0
   -7.0211   -1.8568   -1.8375 H   0  0  0  0  0  0  0  0  0  0  0  0
   -0.4598   -5.6164    0.8959 H   0  0  0  0  0  0  0  0  0  0  0  0
   -5.2375    1.9857   -1.7643 H   0  0  0  0  0  0  0  0  0  0  0  0
   -5.1033    1.9916    0.0033 H   0  0  0  0  0  0  0  0  0  0  0  0
   -2.9874    1.5050   -1.9220 H   0  0  0  0  0  0  0  0  0  0  0  0
   -9.1340    0.9860    1.4586 H   0  0  0  0  0  0  0  0  0  0  0  0
   -9.2543    1.1547   -0.2977 H   0  0  0  0  0  0  0  0  0  0  0  0
   -9.2979   -0.8773   -1.6324 H   0  0  0  0  0  0  0  0  0  0  0  0
   -9.2094   -2.4255   -0.7823 H   0  0  0  0  0  0  0  0  0  0  0  0
  1 21  2  0  0  0  0
  2 36  1  0  0  0  0
  2 37  1  0  0  0  0
  3 29  2  0  0  0  0
  4  9  1  0  0  0  0
  4 16  1  0  0  0  0
  4 19  1  0  0  0  0
  5 12  1  0  0  0  0
  5 20  1  0  0  0  0
  5 42  1  0  0  0  0
  6 17  1  0  0  0  0
  6 21  1  0  0  0  0
  6 43  1  0  0  0  0
  7 30  1  0  0  0  0
  7 34  1  0  0  0  0
  7 35  1  0  0  0  0
  8 29  1  0  0  0  0
  8 33  1  0  0  0  0
  8 62  1  0  0  0  0
  9 10  1  0  0  0  0
  9 12  2  0  0  0  0
 10 11  2  0  0  0  0
 10 15  1  0  0  0  0
 11 14  1  0  0  0  0
 11 17  1  0  0  0  0
 12 13  1  0  0  0  0
 13 14  2  0  0  0  0
 13 18  1  0  0  0  0
 14 21  1  0  0  0  0
 15 16  1  0  0  0  0
 15 22  2  0  0  0  0
 16 24  2  0  0  0  0
 17 38  1  0  0  0  0
 17 39  1  0  0  0  0
 18 20  1  0  0  0  0
 18 25  2  0  0  0  0
 19 23  1  0  0  0  0
 19 40  1  0  0  0  0
 19 41  1  0  0  0  0
 20 26  2  0  0  0  0
 22 27  1  0  0  0  0
 22 44  1  0  0  0  0
 23 29  1  0  0  0  0
 23 45  1  0  0  0  0
 23 46  1  0  0  0  0
 24 28  1  0  0  0  0
 24 47  1  0  0  0  0
 25 31  1  0  0  0  0
 25 48  1  0  0  0  0
 26 32  1  0  0  0  0
 26 49  1  0  0  0  0
 27 28  2  0  0  0  0
 27 50  1  0  0  0  0
 28 51  1  0  0  0  0
 30 33  1  0  0  0  0
 30 52  1  0  0  0  0
 30 53  1  0  0  0  0
 31 32  2  0  0  0  0
 31 54  1  0  0  0  0
 32 59  1  0  0  0  0
 33 60  1  0  0  0  0
 33 61  1  0  0  0  0
 34 36  1  0  0  0  0
 34 55  1  0  0  0  0
 34 56  1  0  0  0  0
 35 37  1  0  0  0  0
 35 57  1  0  0  0  0
 35 58  1  0  0  0  0
 36 63  1  0  0  0  0
 36 64  1  0  0  0  0
 37 65  1  0  0  0  0
 37 66  1  0  0  0  0
M  END
> <PUBCHEM_COMPOUND_CID>
10255238

> <PUBCHEM_CONFORMER_RMSD>
1

> <PUBCHEM_CONFORMER_DIVERSEORDER>
1
20
10
7
24
9
53
19
26
48
3
42
44
34
55
30
39
54
61
38
8
35
45
63
36
37
32
29
28
21
27
50
46
40
16
57
51
49
23
31
18
33
6
25
15
22
52
14
2
12
4
41
62
47
43
17
13
59
5
56
58
11
60

> <PUBCHEM_MMFF94_PARTIAL_CHARGES>
46
1 -0.57
10 -0.01
11 -0.14
12 -0.05
13 -0.01
14 0.09
16 -0.15
17 0.44
19 0.26
2 -0.56
20 -0.15
21 0.54
22 -0.15
23 0.06
24 -0.15
25 -0.15
26 -0.15
27 -0.15
28 -0.15
29 0.57
3 -0.57
30 0.27
31 -0.15
32 -0.15
33 0.3
34 0.27
35 0.27
36 0.28
37 0.28
4 -0.04
42 0.27
43 0.37
44 0.15
47 0.15
48 0.15
49 0.15
5 -0.05
50 0.15
51 0.15
54 0.15
59 0.15
6 -0.73
62 0.37
7 -0.81
8 -0.73
9 -0.05

> <PUBCHEM_EFFECTIVE_ROTOR_COUNT>
8.6

> <PUBCHEM_PHARMACOPHORE_FEATURES>
16
1 1 acceptor
1 2 acceptor
1 3 acceptor
1 4 cation
1 5 cation
1 5 donor
1 6 donor
1 7 cation
1 8 donor
5 4 9 10 15 16 rings
5 5 12 13 18 20 rings
5 6 11 14 17 21 rings
6 15 16 22 24 27 28 rings
6 18 20 25 26 31 32 rings
6 2 7 34 35 36 37 rings
6 9 10 11 12 13 14 rings

> <PUBCHEM_HEAVY_ATOM_COUNT>
37

> <PUBCHEM_ATOM_DEF_STEREO_COUNT>
0

> <PUBCHEM_ATOM_UDEF_STEREO_COUNT>
0

> <PUBCHEM_BOND_DEF_STEREO_COUNT>
0

> <PUBCHEM_BOND_UDEF_STEREO_COUNT>
0

> <PUBCHEM_ISOTOPIC_ATOM_COUNT>
0

> <PUBCHEM_COMPONENT_COUNT>
1

> <PUBCHEM_CACTVS_TAUTO_COUNT>
10

> <PUBCHEM_CONFORMER_ID>
009C7B8600000001

> <PUBCHEM_MMFF94_ENERGY>
121.5912

> <PUBCHEM_FEATURE_SELFOVERLAP>
81.664

> <PUBCHEM_SHAPE_FINGERPRINT>
10411042 1 18267868277379619780
1100329 8 18410582808069565536
11204353 107 18337390552007259667
11227688 84 18122624950954004398
11377469 6 17988638528602775457
1361 2 18335980982379087129
13692114 37 18125145289540353048
13911987 19 18190199922828886964
15439362 3 18267020738345796196
15467298 65 18057589045359042575
15483637 11 17977385258904755331
15538507 32 18410292536382784047
19319366 153 18270389616086719613
20028762 73 18271806791916999694
20775438 99 18055331777486453726
22899556 105 17980776939424834222
23516275 137 17487364705421891111
23522609 53 17773337793145511153
23569917 315 18267585698586842890
283562 15 18052262800569576096
3178227 256 18411135831303552153
404807 78 17677063429229234075
4073 2 18263926708856735747
484989 97 18335993063594563802
57527295 17 17751642052752453488
5776283 40 18335708290267202878
6004065 56 18411697673883690848
9831232 110 18337666430804165685

> <PUBCHEM_SHAPE_MULTIPOLES>
718.93
20.31
7.05
0.95
64.55
1.12
-0.02
1.86
-5.39
-10.91
1.36
0.49
0.07
0.2

> <PUBCHEM_SHAPE_SELFOVERLAP>
1612.807

> <PUBCHEM_SHAPE_VOLUME>
380.1

> <PUBCHEM_COORDINATE_TYPE>
2
5
10

$$$$
