11583459
  -OEChem-10062122003D

 63 69  0     0  0  0  0  0  0999 V2000
    7.3386   -1.8544   -0.2542 N   0  0  0  0  0  0  0  0  0  0  0  0
    2.4929    1.6847   -0.5258 N   0  0  0  0  0  0  0  0  0  0  0  0
    1.5785    0.3129    0.9599 N   0  0  0  0  0  0  0  0  0  0  0  0
    1.4959    3.7715   -2.0585 N   0  0  0  0  0  0  0  0  0  0  0  0
   -0.6507    3.5507   -1.2103 N   0  0  0  0  0  0  0  0  0  0  0  0
   -3.8723   -0.4826   -0.0041 N   0  0  0  0  0  0  0  0  0  0  0  0
    4.9700   -1.9867    0.4190 C   0  0  0  0  0  0  0  0  0  0  0  0
    4.0302   -0.0834    0.5591 C   0  0  0  0  0  0  0  0  0  0  0  0
    4.4915   -0.9573   -0.6259 C   0  0  0  0  0  0  0  0  0  0  0  0
    3.9211   -1.3865    1.3780 C   0  0  0  0  0  0  0  0  0  0  0  0
    6.4174   -1.7780    0.8763 C   0  0  0  0  0  0  0  0  0  0  0  0
    2.6895    0.6401    0.3330 C   0  0  0  0  0  0  0  0  0  0  0  0
    8.7186   -1.6026    0.2286 C   0  0  0  0  0  0  0  0  0  0  0  0
    7.7175   -3.2716   -0.4748 C   0  0  0  0  0  0  0  0  0  0  0  0
    9.1787   -2.8155   -0.5924 C   0  0  0  0  0  0  0  0  0  0  0  0
    1.1695    2.0447   -0.4390 C   0  0  0  0  0  0  0  0  0  0  0  0
    0.6307    1.1837    0.4825 C   0  0  0  0  0  0  0  0  0  0  0  0
    3.3394    2.3614   -1.3789 C   0  0  0  0  0  0  0  0  0  0  0  0
    0.6632    3.1417   -1.2505 C   0  0  0  0  0  0  0  0  0  0  0  0
   -0.7339    1.1489    0.9292 C   0  0  0  0  0  0  0  0  0  0  0  0
    2.8206    3.3666   -2.1050 C   0  0  0  0  0  0  0  0  0  0  0  0
   -1.6672    0.3534    0.2601 C   0  0  0  0  0  0  0  0  0  0  0  0
   -1.1256    1.9066    2.0259 C   0  0  0  0  0  0  0  0  0  0  0  0
   -2.9985    0.2945    0.6633 C   0  0  0  0  0  0  0  0  0  0  0  0
   -2.4505    1.8667    2.4507 C   0  0  0  0  0  0  0  0  0  0  0  0
   -3.3891    1.0664    1.7775 C   0  0  0  0  0  0  0  0  0  0  0  0
   -4.7290    1.0077    2.1838 C   0  0  0  0  0  0  0  0  0  0  0  0
   -5.1564   -0.5113    0.4202 C   0  0  0  0  0  0  0  0  0  0  0  0
   -5.6317    0.2078    1.4980 C   0  0  0  0  0  0  0  0  0  0  0  0
   -6.0304   -1.3677   -0.3461 C   0  0  0  0  0  0  0  0  0  0  0  0
   -6.7176   -0.8595   -1.4504 C   0  0  0  0  0  0  0  0  0  0  0  0
   -6.1915   -2.7070    0.0148 C   0  0  0  0  0  0  0  0  0  0  0  0
   -7.5621   -1.6869   -2.1906 C   0  0  0  0  0  0  0  0  0  0  0  0
   -7.0361   -3.5344   -0.7254 C   0  0  0  0  0  0  0  0  0  0  0  0
   -7.7213   -3.0243   -1.8281 C   0  0  0  0  0  0  0  0  0  0  0  0
    4.7757   -3.0289    0.1394 H   0  0  0  0  0  0  0  0  0  0  0  0
    4.8008    0.6035    0.9304 H   0  0  0  0  0  0  0  0  0  0  0  0
    3.6803   -1.3365   -1.2610 H   0  0  0  0  0  0  0  0  0  0  0  0
    5.2460   -0.5058   -1.2759 H   0  0  0  0  0  0  0  0  0  0  0  0
    4.2134   -1.3108    2.4296 H   0  0  0  0  0  0  0  0  0  0  0  0
    2.9553   -1.9042    1.3246 H   0  0  0  0  0  0  0  0  0  0  0  0
    6.6506   -2.4889    1.6812 H   0  0  0  0  0  0  0  0  0  0  0  0
    6.5257   -0.7836    1.3285 H   0  0  0  0  0  0  0  0  0  0  0  0
    9.1421   -0.6437   -0.0851 H   0  0  0  0  0  0  0  0  0  0  0  0
    8.8842   -1.7209    1.3077 H   0  0  0  0  0  0  0  0  0  0  0  0
    7.5484   -3.9661    0.3582 H   0  0  0  0  0  0  0  0  0  0  0  0
    7.2994   -3.7160   -1.3833 H   0  0  0  0  0  0  0  0  0  0  0  0
    9.9272   -3.4605   -0.1267 H   0  0  0  0  0  0  0  0  0  0  0  0
    9.4901   -2.5714   -1.6146 H   0  0  0  0  0  0  0  0  0  0  0  0
    4.3789    2.0653   -1.4323 H   0  0  0  0  0  0  0  0  0  0  0  0
    3.4533    3.9244   -2.7871 H   0  0  0  0  0  0  0  0  0  0  0  0
   -1.3511   -0.2377   -0.5994 H   0  0  0  0  0  0  0  0  0  0  0  0
   -0.4147    2.5321    2.5598 H   0  0  0  0  0  0  0  0  0  0  0  0
   -0.9676    4.3197   -1.7913 H   0  0  0  0  0  0  0  0  0  0  0  0
   -1.3459    3.1153   -0.6167 H   0  0  0  0  0  0  0  0  0  0  0  0
   -2.7469    2.4638    3.3102 H   0  0  0  0  0  0  0  0  0  0  0  0
   -5.0765    1.5853    3.0373 H   0  0  0  0  0  0  0  0  0  0  0  0
   -6.6694    0.1610    1.8113 H   0  0  0  0  0  0  0  0  0  0  0  0
   -6.6043    0.1807   -1.7470 H   0  0  0  0  0  0  0  0  0  0  0  0
   -5.6644   -3.1210    0.8712 H   0  0  0  0  0  0  0  0  0  0  0  0
   -8.0957   -1.2900   -3.0493 H   0  0  0  0  0  0  0  0  0  0  0  0
   -7.1601   -4.5759   -0.4434 H   0  0  0  0  0  0  0  0  0  0  0  0
   -8.3787   -3.6686   -2.4044 H   0  0  0  0  0  0  0  0  0  0  0  0
  1 11  1  0  0  0  0
  1 13  1  0  0  0  0
  1 14  1  0  0  0  0
  2 12  1  0  0  0  0
  2 16  1  0  0  0  0
  2 18  1  0  0  0  0
  3 12  2  0  0  0  0
  3 17  1  0  0  0  0
  4 19  2  0  0  0  0
  4 21  1  0  0  0  0
  5 19  1  0  0  0  0
  5 54  1  0  0  0  0
  5 55  1  0  0  0  0
  6 24  1  0  0  0  0
  6 28  2  0  0  0  0
  7  9  1  0  0  0  0
  7 10  1  0  0  0  0
  7 11  1  0  0  0  0
  7 36  1  0  0  0  0
  8  9  1  0  0  0  0
  8 10  1  0  0  0  0
  8 12  1  0  0  0  0
  8 37  1  0  0  0  0
  9 38  1  0  0  0  0
  9 39  1  0  0  0  0
 10 40  1  0  0  0  0
 10 41  1  0  0  0  0
 11 42  1  0  0  0  0
 11 43  1  0  0  0  0
 13 15  1  0  0  0  0
 13 44  1  0  0  0  0
 13 45  1  0  0  0  0
 14 15  1  0  0  0  0
 14 46  1  0  0  0  0
 14 47  1  0  0  0  0
 15 48  1  0  0  0  0
 15 49  1  0  0  0  0
 16 17  2  0  0  0  0
 16 19  1  0  0  0  0
 17 20  1  0  0  0  0
 18 21  2  0  0  0  0
 18 50  1  0  0  0  0
 20 22  2  0  0  0  0
 20 23  1  0  0  0  0
 21 51  1  0  0  0  0
 22 24  1  0  0  0  0
 22 52  1  0  0  0  0
 23 25  2  0  0  0  0
 23 53  1  0  0  0  0
 24 26  2  0  0  0  0
 25 26  1  0  0  0  0
 25 56  1  0  0  0  0
 26 27  1  0  0  0  0
 27 29  2  0  0  0  0
 27 57  1  0  0  0  0
 28 29  1  0  0  0  0
 28 30  1  0  0  0  0
 29 58  1  0  0  0  0
 30 31  2  0  0  0  0
 30 32  1  0  0  0  0
 31 33  1  0  0  0  0
 31 59  1  0  0  0  0
 32 34  2  0  0  0  0
 32 60  1  0  0  0  0
 33 35  2  0  0  0  0
 33 61  1  0  0  0  0
 34 35  1  0  0  0  0
 34 62  1  0  0  0  0
 35 63  1  0  0  0  0
M  END
> <PUBCHEM_COMPOUND_CID>
11583459

> <PUBCHEM_CONFORMER_RMSD>
1

> <PUBCHEM_CONFORMER_DIVERSEORDER>
1
12
3
6
9
10
13
5
7
11
4
8
2

> <PUBCHEM_MMFF94_PARTIAL_CHARGES>
43
1 -0.69
11 0.27
12 0.03
13 0.21
14 0.21
16 -0.24
17 0.17
18 -0.18
19 0.58
2 0.33
20 0.05
21 0.02
22 -0.15
23 -0.15
24 0.31
25 -0.15
27 -0.15
28 0.31
29 -0.15
3 -0.57
31 -0.15
32 -0.15
33 -0.15
34 -0.15
35 -0.15
4 -0.62
5 -0.85
50 0.15
51 0.15
52 0.15
53 0.15
54 0.4
55 0.4
56 0.15
57 0.15
58 0.15
59 0.15
6 -0.62
60 0.15
61 0.15
62 0.15
63 0.15
8 0.16

> <PUBCHEM_EFFECTIVE_ROTOR_COUNT>
6.6

> <PUBCHEM_PHARMACOPHORE_FEATURES>
12
1 1 cation
1 5 donor
1 6 acceptor
3 2 3 12 cation
3 4 5 19 cation
4 1 13 14 15 rings
4 7 8 9 10 rings
5 2 3 12 16 17 rings
6 2 4 16 18 19 21 rings
6 20 22 23 24 25 26 rings
6 30 31 32 33 34 35 rings
6 6 24 26 27 28 29 rings

> <PUBCHEM_HEAVY_ATOM_COUNT>
35

> <PUBCHEM_ATOM_DEF_STEREO_COUNT>
0

> <PUBCHEM_ATOM_UDEF_STEREO_COUNT>
0

> <PUBCHEM_BOND_DEF_STEREO_COUNT>
0

> <PUBCHEM_BOND_UDEF_STEREO_COUNT>
0

> <PUBCHEM_ISOTOPIC_ATOM_COUNT>
0

> <PUBCHEM_COMPONENT_COUNT>
1

> <PUBCHEM_CACTVS_TAUTO_COUNT>
2

> <PUBCHEM_CONFORMER_ID>
00B0BFE300000001

> <PUBCHEM_MMFF94_ENERGY>
120.4862

> <PUBCHEM_FEATURE_SELFOVERLAP>
61.033

> <PUBCHEM_SHAPE_FINGERPRINT>
10258705 36 17201373867300855790
10622 236 18411982481680858451
10693767 8 18334579066456476350
11135609 99 18060133275771629110
11497681 19 18342457033004601074
11607047 74 18054499477128354592
11621639 183 15265954138385427131
11828042 279 17531257201524178468
12013929 27 18189333653748608079
12166972 35 18339356461632840193
12645989 146 18260827099114381973
13782708 43 15697734687481805853
14068700 675 18341614802254579648
14340393 91 17968081011728225837
14556957 393 16879657898641123612
14671636 106 18131912663830570226
15198563 99 17604715435551934820
15320294 125 18059853978775893719
15392192 29 18262818284011706906
15444296 8 18188206490313674997
15807756 48 18262522623771301935
16728433 281 13695858187105923015
16989378 47 18266483007980609310
16991971 28 18335424565192229430
16994733 274 11602827912774559278
19315092 285 18202563994832797040
19841028 212 18339073891128674787
20028762 73 18272932713140838886
21057603 130 18412265026088802802
21792938 703 18263364844686749730
21987483 16 16986009466382012583
23389318 12 18334861624166060662
23523788 1 16271938111562742213
23569914 152 17317848445255103855
25025965 108 17898843557752923722
255183 451 18334010605838618012
3504750 166 18269841917356678657
3986486 107 16370718215249806791
4015057 19 18042131015335604721
406291 66 18201716280084660431
437795 70 17095790067570828885
474113 269 17917697016825018975
4760202 70 18340773732564122940
5028188 123 18201167538731542382
5104073 3 16988288694167243203
5718773 13 18131066047902562835
57527295 17 17023735720074599641
5758199 1 10375865269351655258
58902169 19 18335424582635738837
5937810 71 13045948984177479983
5969126 39 18041565716050863548
6679774 75 10787792842686490061
6691757 9 17701547208491691857
6697151 62 17967247624157448288
9555976 147 17488758761263583096
9896288 288 17345760659911062963

> <PUBCHEM_SHAPE_MULTIPOLES>
690.4
25.18
4.62
2.11
14.48
0.4
-0.06
-38.37
-6.3
1.78
-2.82
-2.55
1.52
-5.12

> <PUBCHEM_SHAPE_SELFOVERLAP>
1552.682

> <PUBCHEM_SHAPE_VOLUME>
361.1

> <PUBCHEM_COORDINATE_TYPE>
2
5
10

$$$$
