449241
  -OEChem-10052115143D

 47 49  0     0  0  0  0  0  0999 V2000
    5.8465   -2.0343   -0.3294 Br  0  0  0  0  0  0  0  0  0  0  0  0
   -3.9396   -0.6596    0.4995 S   0  0  0  0  0  0  0  0  0  0  0  0
   -5.0645   -0.5004   -0.4076 O   0  0  0  0  0  0  0  0  0  0  0  0
   -4.0260   -1.6093    1.5965 O   0  0  0  0  0  0  0  0  0  0  0  0
   -3.5121    0.8700    1.1250 N   0  0  0  0  0  0  0  0  0  0  0  0
   -1.4582    3.5416   -0.4707 N   0  0  0  0  0  0  0  0  0  0  0  0
    1.2125   -2.0502    1.2651 N   0  0  0  0  0  0  0  0  0  0  0  0
   -2.5202   -1.0797   -0.4470 C   0  0  0  0  0  0  0  0  0  0  0  0
   -3.2133    1.9816    0.2109 C   0  0  0  0  0  0  0  0  0  0  0  0
   -1.2851   -1.3999    0.1398 C   0  0  0  0  0  0  0  0  0  0  0  0
   -1.7765    2.4356    0.4234 C   0  0  0  0  0  0  0  0  0  0  0  0
   -0.1940   -1.7254   -0.6921 C   0  0  0  0  0  0  0  0  0  0  0  0
   -2.6691   -1.0825   -1.8350 C   0  0  0  0  0  0  0  0  0  0  0  0
   -0.3551   -1.7250   -2.0876 C   0  0  0  0  0  0  0  0  0  0  0  0
   -1.1042   -1.4062    1.5277 C   0  0  0  0  0  0  0  0  0  0  0  0
   -1.5889   -1.4044   -2.6534 C   0  0  0  0  0  0  0  0  0  0  0  0
   -0.0943    4.0059   -0.2582 C   0  0  0  0  0  0  0  0  0  0  0  0
    1.0177   -2.0383   -0.0728 C   0  0  0  0  0  0  0  0  0  0  0  0
    0.1460   -1.7337    2.0300 C   0  0  0  0  0  0  0  0  0  0  0  0
    0.9036    2.9126   -0.5012 C   0  0  0  0  0  0  0  0  0  0  0  0
    1.7487    2.4647    0.4409 C   0  0  0  0  0  0  0  0  0  0  0  0
    2.7325    1.3848    0.2561 C   0  0  0  0  0  0  0  0  0  0  0  0
    3.1288    1.0390   -1.0263 C   0  0  0  0  0  0  0  0  0  0  0  0
    3.2441    0.7342    1.3676 C   0  0  0  0  0  0  0  0  0  0  0  0
    4.0606    0.0158   -1.2015 C   0  0  0  0  0  0  0  0  0  0  0  0
    4.1760   -0.2888    1.1924 C   0  0  0  0  0  0  0  0  0  0  0  0
    4.5841   -0.6482   -0.0921 C   0  0  0  0  0  0  0  0  0  0  0  0
   -3.9082    2.7974    0.4422 H   0  0  0  0  0  0  0  0  0  0  0  0
   -3.3879    1.6991   -0.8323 H   0  0  0  0  0  0  0  0  0  0  0  0
   -3.2642    0.9812    2.1151 H   0  0  0  0  0  0  0  0  0  0  0  0
   -1.1227    1.5768    0.2430 H   0  0  0  0  0  0  0  0  0  0  0  0
   -1.6413    2.7376    1.4700 H   0  0  0  0  0  0  0  0  0  0  0  0
   -3.6105   -0.8351   -2.3161 H   0  0  0  0  0  0  0  0  0  0  0  0
   -2.1069    4.3118   -0.3108 H   0  0  0  0  0  0  0  0  0  0  0  0
    0.4784   -1.9726   -2.7409 H   0  0  0  0  0  0  0  0  0  0  0  0
   -1.8610   -1.1366    2.2506 H   0  0  0  0  0  0  0  0  0  0  0  0
   -1.7062   -1.4045   -3.7332 H   0  0  0  0  0  0  0  0  0  0  0  0
    0.0093    4.4321    0.7473 H   0  0  0  0  0  0  0  0  0  0  0  0
    0.1113    4.8188   -0.9639 H   0  0  0  0  0  0  0  0  0  0  0  0
    1.8937   -2.3070   -0.6560 H   0  0  0  0  0  0  0  0  0  0  0  0
    0.3293   -1.7399    3.0996 H   0  0  0  0  0  0  0  0  0  0  0  0
    0.8884    2.4853   -1.4998 H   0  0  0  0  0  0  0  0  0  0  0  0
    1.7121    2.9048    1.4351 H   0  0  0  0  0  0  0  0  0  0  0  0
    2.7643    1.5413   -1.9165 H   0  0  0  0  0  0  0  0  0  0  0  0
    2.9337    1.0004    2.3745 H   0  0  0  0  0  0  0  0  0  0  0  0
    4.3712   -0.2498   -2.2088 H   0  0  0  0  0  0  0  0  0  0  0  0
    4.5730   -0.7971    2.0672 H   0  0  0  0  0  0  0  0  0  0  0  0
  1 27  1  0  0  0  0
  2  3  2  0  0  0  0
  2  4  2  0  0  0  0
  2  5  1  0  0  0  0
  2  8  1  0  0  0  0
  5  9  1  0  0  0  0
  5 30  1  0  0  0  0
  6 11  1  0  0  0  0
  6 17  1  0  0  0  0
  6 34  1  0  0  0  0
  7 18  2  0  0  0  0
  7 19  1  0  0  0  0
  8 10  1  0  0  0  0
  8 13  2  0  0  0  0
  9 11  1  0  0  0  0
  9 28  1  0  0  0  0
  9 29  1  0  0  0  0
 10 12  2  0  0  0  0
 10 15  1  0  0  0  0
 11 31  1  0  0  0  0
 11 32  1  0  0  0  0
 12 14  1  0  0  0  0
 12 18  1  0  0  0  0
 13 16  1  0  0  0  0
 13 33  1  0  0  0  0
 14 16  2  0  0  0  0
 14 35  1  0  0  0  0
 15 19  2  0  0  0  0
 15 36  1  0  0  0  0
 16 37  1  0  0  0  0
 17 20  1  0  0  0  0
 17 38  1  0  0  0  0
 17 39  1  0  0  0  0
 18 40  1  0  0  0  0
 19 41  1  0  0  0  0
 20 21  2  0  0  0  0
 20 42  1  0  0  0  0
 21 22  1  0  0  0  0
 21 43  1  0  0  0  0
 22 23  2  0  0  0  0
 22 24  1  0  0  0  0
 23 25  1  0  0  0  0
 23 44  1  0  0  0  0
 24 26  2  0  0  0  0
 24 45  1  0  0  0  0
 25 27  2  0  0  0  0
 25 46  1  0  0  0  0
 26 27  1  0  0  0  0
 26 47  1  0  0  0  0
M  END
> <PUBCHEM_COMPOUND_CID>
449241

> <PUBCHEM_CONFORMER_RMSD>
1

> <PUBCHEM_CONFORMER_DIVERSEORDER>
2
16
28
84
105
18
140
126
38
15
154
95
122
44
136
31
77
61
26
118
10
33
101
145
148
149
25
128
67
150
80
47
132
120
123
8
12
7
40
142
113
114
75
86
6
81
46
129
57
59
42
96
48
58
11
32
1
152
94
73
60
107
68
21
74
141
153
155
34
109
104
93
3
51
64
156
91
35
83
134
50
63
24
39
23
37
89
78
66
45
9
97
17
49
139
137
116
76
144
133
130
43
87
111
92
72
53
108
29
69
98
20
5
52
62
131
121
27
100
70
55
112
99
41
19
71
106
124
14
103
82
117
36
54
79
85
65
102
138
119
135
13
125
90
110
88
143
56
151
146
4
22
147
115
30
127

> <PUBCHEM_MMFF94_PARTIAL_CHARGES>
39
1 -0.11
11 0.27
13 -0.15
14 -0.15
15 -0.15
16 -0.15
17 0.41
18 0.16
19 0.16
2 1.45
20 -0.29
21 -0.18
22 0.03
23 -0.15
24 -0.15
25 -0.15
26 -0.15
27 0.11
3 -0.65
30 0.42
33 0.15
34 0.36
35 0.15
36 0.15
37 0.15
4 -0.65
40 0.15
41 0.15
42 0.15
43 0.15
44 0.15
45 0.15
46 0.15
47 0.15
5 -0.91
6 -0.9
7 -0.62
8 -0.01
9 0.36

> <PUBCHEM_EFFECTIVE_ROTOR_COUNT>
8

> <PUBCHEM_PHARMACOPHORE_FEATURES>
10
1 1 hydrophobe
1 3 acceptor
1 4 acceptor
1 5 donor
1 6 cation
1 6 donor
1 7 acceptor
6 22 23 24 25 26 27 rings
6 7 10 12 15 18 19 rings
6 8 10 12 13 14 16 rings

> <PUBCHEM_HEAVY_ATOM_COUNT>
27

> <PUBCHEM_ATOM_DEF_STEREO_COUNT>
0

> <PUBCHEM_ATOM_UDEF_STEREO_COUNT>
0

> <PUBCHEM_BOND_DEF_STEREO_COUNT>
1

> <PUBCHEM_BOND_UDEF_STEREO_COUNT>
0

> <PUBCHEM_ISOTOPIC_ATOM_COUNT>
0

> <PUBCHEM_COMPONENT_COUNT>
1

> <PUBCHEM_CACTVS_TAUTO_COUNT>
1

> <PUBCHEM_CONFORMER_ID>
0006DAD900000002

> <PUBCHEM_MMFF94_ENERGY>
53.5542

> <PUBCHEM_FEATURE_SELFOVERLAP>
50.79

> <PUBCHEM_SHAPE_FINGERPRINT>
104564 63 18337103454917260588
12156800 1 16598791002667342800
12422481 6 18128563525462738961
12539773 59 17627815306861704953
12553582 1 18193552492226689300
12788726 201 18335995215863789556
13165053 137 15171083563631497046
14251751 93 18265614278078494260
14251757 17 17627802911754718430
14279260 333 18044091251484681546
19930381 70 17473542928857387027
20905425 154 18122911932036713588
21857420 4 15903990067380431071
238 59 16466401359004067140
3052486 1 18263077739376755964
35225 105 18337398145134393084
392239 28 18042426715117087579
508706 21 18266465295366681629
6438718 38 18272087167434518116

> <PUBCHEM_SHAPE_MULTIPOLES>
538.76
9.16
3.93
1.88
5.91
4.31
-0.38
-3.22
0.54
-0.58
-0.41
-0.63
-1.24
-0.16

> <PUBCHEM_SHAPE_SELFOVERLAP>
1124.18

> <PUBCHEM_SHAPE_VOLUME>
310.7

> <PUBCHEM_COORDINATE_TYPE>
2
5
10

$$$$
