49830837
  -OEChem-10052115193D

 50 52  0     1  0  0  0  0  0999 V2000
   -2.8451   -5.4272   -0.6412 Cl  0  0  0  0  0  0  0  0  0  0  0  0
   -2.9350    0.2678    0.8499 O   0  0  0  0  0  0  0  0  0  0  0  0
    0.1760    5.6861   -0.1357 O   0  0  0  0  0  0  0  0  0  0  0  0
   -0.6614    4.3378    1.5004 O   0  0  0  0  0  0  0  0  0  0  0  0
    1.0965   -2.6453   -0.2370 O   0  0  0  0  0  0  0  0  0  0  0  0
   -0.4880   -1.0113    0.3171 N   0  0  0  0  0  0  0  0  0  0  0  0
    1.7532   -0.4608    0.2784 N   0  0  0  0  0  0  0  0  0  0  0  0
    3.7465   -1.6835   -0.2027 N   0  0  0  0  0  0  0  0  0  0  0  0
    5.2359    0.6429    0.2831 N   0  0  0  0  0  0  0  0  0  0  0  0
    8.3977   -0.4623   -0.2638 N   0  0  0  0  0  0  0  0  0  0  0  0
   -3.0340    2.5192    0.0561 C   0  0  1  0  0  0  0  0  0  0  0  0
   -1.6019    2.5478   -0.4770 C   0  0  0  0  0  0  0  0  0  0  0  0
   -1.3450    4.0226   -0.7964 C   0  0  1  0  0  0  0  0  0  0  0  0
   -3.7381    3.5369   -0.8339 C   0  0  0  0  0  0  0  0  0  0  0  0
   -2.7237    4.6687   -0.9754 C   0  0  0  0  0  0  0  0  0  0  0  0
   -3.6650    1.1386    0.0014 C   0  0  0  0  0  0  0  0  0  0  0  0
   -0.5938    4.6707    0.3265 C   0  0  0  0  0  0  0  0  0  0  0  0
   -2.9062   -1.0591    0.5015 C   0  0  0  0  0  0  0  0  0  0  0  0
   -1.6984   -1.7040    0.2351 C   0  0  0  0  0  0  0  0  0  0  0  0
   -4.1069   -1.7638    0.4160 C   0  0  0  0  0  0  0  0  0  0  0  0
   -4.1000   -3.1135    0.0637 C   0  0  0  0  0  0  0  0  0  0  0  0
   -1.6915   -3.0538   -0.1169 C   0  0  0  0  0  0  0  0  0  0  0  0
   -2.8921   -3.7585   -0.2026 C   0  0  0  0  0  0  0  0  0  0  0  0
   -5.4075   -3.8330   -0.0170 C   0  0  0  0  0  0  0  0  0  0  0  0
    0.8220   -1.4937    0.0851 C   0  0  0  0  0  0  0  0  0  0  0  0
    3.1608   -0.5215    0.1483 C   0  0  0  0  0  0  0  0  0  0  0  0
    3.8924    0.6211    0.3869 C   0  0  0  0  0  0  0  0  0  0  0  0
    5.0902   -1.6618   -0.3064 C   0  0  0  0  0  0  0  0  0  0  0  0
    5.8217   -0.5193   -0.0679 C   0  0  0  0  0  0  0  0  0  0  0  0
    7.2408   -0.4879   -0.1758 C   0  0  0  0  0  0  0  0  0  0  0  0
   -3.0288    2.8737    1.0956 H   0  0  0  0  0  0  0  0  0  0  0  0
   -0.8882    2.1241    0.2361 H   0  0  0  0  0  0  0  0  0  0  0  0
   -1.5306    1.9600   -1.4013 H   0  0  0  0  0  0  0  0  0  0  0  0
   -0.7415    4.0926   -1.7091 H   0  0  0  0  0  0  0  0  0  0  0  0
   -3.9560    3.1099   -1.8207 H   0  0  0  0  0  0  0  0  0  0  0  0
   -4.6819    3.8850   -0.4029 H   0  0  0  0  0  0  0  0  0  0  0  0
   -2.9123    5.4397   -0.2187 H   0  0  0  0  0  0  0  0  0  0  0  0
   -2.8155    5.1485   -1.9557 H   0  0  0  0  0  0  0  0  0  0  0  0
   -3.6730    0.7667   -1.0320 H   0  0  0  0  0  0  0  0  0  0  0  0
   -4.7015    1.1902    0.3542 H   0  0  0  0  0  0  0  0  0  0  0  0
    0.6755    6.1247    0.5857 H   0  0  0  0  0  0  0  0  0  0  0  0
   -5.0459   -1.2605    0.6332 H   0  0  0  0  0  0  0  0  0  0  0  0
   -0.7939   -3.6135   -0.3358 H   0  0  0  0  0  0  0  0  0  0  0  0
   -0.5647   -0.0352    0.5881 H   0  0  0  0  0  0  0  0  0  0  0  0
   -6.2511   -3.1757    0.2210 H   0  0  0  0  0  0  0  0  0  0  0  0
   -5.4345   -4.6629    0.6968 H   0  0  0  0  0  0  0  0  0  0  0  0
   -5.5738   -4.2161   -1.0293 H   0  0  0  0  0  0  0  0  0  0  0  0
    1.3770    0.4459    0.5445 H   0  0  0  0  0  0  0  0  0  0  0  0
    3.4338    1.5619    0.6695 H   0  0  0  0  0  0  0  0  0  0  0  0
    5.5508   -2.6016   -0.5892 H   0  0  0  0  0  0  0  0  0  0  0  0
  1 23  1  0  0  0  0
  2 16  1  0  0  0  0
  2 18  1  0  0  0  0
  3 17  1  0  0  0  0
  3 41  1  0  0  0  0
  4 17  2  0  0  0  0
  5 25  2  0  0  0  0
  6 19  1  0  0  0  0
  6 25  1  0  0  0  0
  6 44  1  0  0  0  0
  7 25  1  0  0  0  0
  7 26  1  0  0  0  0
  7 48  1  0  0  0  0
  8 26  2  0  0  0  0
  8 28  1  0  0  0  0
  9 27  2  0  0  0  0
  9 29  1  0  0  0  0
 10 30  3  0  0  0  0
 11 12  1  0  0  0  0
 11 14  1  0  0  0  0
 11 16  1  0  0  0  0
 11 31  1  0  0  0  0
 12 13  1  0  0  0  0
 12 32  1  0  0  0  0
 12 33  1  0  0  0  0
 13 15  1  0  0  0  0
 13 17  1  0  0  0  0
 13 34  1  0  0  0  0
 14 15  1  0  0  0  0
 14 35  1  0  0  0  0
 14 36  1  0  0  0  0
 15 37  1  0  0  0  0
 15 38  1  0  0  0  0
 16 39  1  0  0  0  0
 16 40  1  0  0  0  0
 18 19  2  0  0  0  0
 18 20  1  0  0  0  0
 19 22  1  0  0  0  0
 20 21  2  0  0  0  0
 20 42  1  0  0  0  0
 21 23  1  0  0  0  0
 21 24  1  0  0  0  0
 22 23  2  0  0  0  0
 22 43  1  0  0  0  0
 24 45  1  0  0  0  0
 24 46  1  0  0  0  0
 24 47  1  0  0  0  0
 26 27  1  0  0  0  0
 27 49  1  0  0  0  0
 28 29  2  0  0  0  0
 28 50  1  0  0  0  0
 29 30  1  0  0  0  0
M  END
> <PUBCHEM_COMPOUND_CID>
49830837

> <PUBCHEM_CONFORMER_RMSD>
1

> <PUBCHEM_CONFORMER_DIVERSEORDER>
1
126
147
111
87
76
149
148
101
4
78
79
34
96
150
67
154
142
112
130
151
119
42
57
146
139
37
117
41
44
66
29
38
80
141
85
122
99
39
124
24
109
91
84
104
64
89
58
23
60
88
7
3
107
77
118
47
135
61
82
125
33
92
5
74
71
22
127
144
134
128
25
123
63
137
72
103
106
98
65
120
129
114
17
50
94
153
86
73
143
10
2
145
36
68
56
132
131
40
55
11
152
100
30
14
102
90
155
9
43
31
46
133
121
26
32
93
59
83
75
53
15
19
48
97
156
136
70
115
116
6
8
49
13
54
62
105
52
81
16
21
113
108
35
27
138
95
12
18
69
140
45
20
28
51
110

> <PUBCHEM_MMFF94_PARTIAL_CHARGES>
33
1 -0.18
10 -0.56
13 0.06
16 0.28
17 0.66
18 0.08
19 0.12
2 -0.36
20 -0.15
21 -0.14
22 -0.15
23 0.18
24 0.14
25 0.69
26 0.43
27 0.16
28 0.16
29 0.38
3 -0.65
30 0.48
4 -0.57
41 0.5
42 0.15
43 0.15
44 0.37
48 0.37
49 0.15
5 -0.57
50 0.15
6 -0.55
7 -0.55
8 -0.62
9 -0.62

> <PUBCHEM_EFFECTIVE_ROTOR_COUNT>
9

> <PUBCHEM_PHARMACOPHORE_FEATURES>
12
1 10 acceptor
1 2 acceptor
1 3 acceptor
1 4 acceptor
1 5 acceptor
1 6 donor
1 7 donor
1 9 acceptor
3 3 4 17 anion
5 11 12 13 14 15 rings
6 18 19 20 21 22 23 rings
6 8 9 26 27 28 29 rings

> <PUBCHEM_HEAVY_ATOM_COUNT>
30

> <PUBCHEM_ATOM_DEF_STEREO_COUNT>
0

> <PUBCHEM_ATOM_UDEF_STEREO_COUNT>
2

> <PUBCHEM_BOND_DEF_STEREO_COUNT>
0

> <PUBCHEM_BOND_UDEF_STEREO_COUNT>
0

> <PUBCHEM_ISOTOPIC_ATOM_COUNT>
0

> <PUBCHEM_COMPONENT_COUNT>
1

> <PUBCHEM_CACTVS_TAUTO_COUNT>
5

> <PUBCHEM_CONFORMER_ID>
02F85BB500000001

> <PUBCHEM_MMFF94_ENERGY>
83.443

> <PUBCHEM_FEATURE_SELFOVERLAP>
61.004

> <PUBCHEM_SHAPE_FINGERPRINT>
10050765 1 18337390415042806398
100830 39 18337954485791982400
10290309 65 18122066390667941643
10411042 1 18265053724896548987
10816530 145 18341625827403701219
11045515 52 18338517568172173419
11059845 2 17759211048528333954
12788726 201 18260541225648399562
13540713 5 17408817961698974339
138480 1 16032106768798344333
13911987 19 18046611327618998469
13974486 27 18269284629014808772
14508225 48 18268419308656584559
14790565 3 17617379481093438702
15198563 99 18410285931102618967
15320467 1 18337953368362604836
15400415 2 17761772863224449716
15419008 42 17914336780420827302
15419008 47 18131066074083401752
15876981 60 18261117399779257958
15961568 22 18121779697585995780
15968369 26 17035841678114158245
16087824 20 18409446969956566031
16993438 75 18263651675213014321
20101258 96 18263370351124505507
20771845 165 18198635328070396998
20775438 99 17549213402862536613
21033648 144 18200600172560399166
21033650 10 18117587088172374438
21133410 127 16960988593202047292
21927370 108 18263659518546522579
23559900 14 17980474886805743907
25019877 29 17632311047231888167
4409770 3 18336542725251142709
550186 7 18271251508527285446
6327066 14 18117273645326629853
6371009 1 17471269783114126593
6700243 42 17913245128134388118
7808743 9 18264204725509157720
9981440 41 17831859049908145265

> <PUBCHEM_SHAPE_MULTIPOLES>
570.87
14.12
8.69
0.82
35.55
8.56
0.03
-10.65
-0.97
-13.56
-1.43
-0.33
0.48
0.77

> <PUBCHEM_SHAPE_SELFOVERLAP>
1208.172

> <PUBCHEM_SHAPE_VOLUME>
318.4

> <PUBCHEM_COORDINATE_TYPE>
2
5
10

$$$$
