9952773
  -OEChem-10062121593D

 50 53  0     0  0  0  0  0  0999 V2000
   -2.4163   -2.8263   -0.0548 S   0  0  0  0  0  0  0  0  0  0  0  0
    2.3744    0.3002    1.1732 O   0  0  0  0  0  0  0  0  0  0  0  0
   -3.7695   -1.0598    1.2609 N   0  0  0  0  0  0  0  0  0  0  0  0
    2.7097   -0.3517   -1.0456 N   0  0  0  0  0  0  0  0  0  0  0  0
    1.1996   -0.1719   -2.8563 N   0  0  0  0  0  0  0  0  0  0  0  0
   -2.8150   -0.3885    0.5212 C   0  0  0  0  0  0  0  0  0  0  0  0
   -1.9901   -1.1770   -0.2538 C   0  0  0  0  0  0  0  0  0  0  0  0
   -2.7146    1.0430    0.5768 C   0  0  0  0  0  0  0  0  0  0  0  0
   -0.9030   -0.8347   -1.1401 C   0  0  0  0  0  0  0  0  0  0  0  0
   -3.6529   -2.3496    1.0353 C   0  0  0  0  0  0  0  0  0  0  0  0
   -4.5063   -3.3878    1.6532 C   0  0  0  0  0  0  0  0  0  0  0  0
   -3.4427    1.8289   -0.3164 C   0  0  0  0  0  0  0  0  0  0  0  0
   -1.8878    1.6474    1.5239 C   0  0  0  0  0  0  0  0  0  0  0  0
   -3.3443    3.2192   -0.2625 C   0  0  0  0  0  0  0  0  0  0  0  0
    0.3962   -0.7587   -0.6528 C   0  0  0  0  0  0  0  0  0  0  0  0
   -1.1539   -0.5803   -2.4831 C   0  0  0  0  0  0  0  0  0  0  0  0
    1.4036   -0.4263   -1.5442 C   0  0  0  0  0  0  0  0  0  0  0  0
   -1.7892    3.0377    1.5778 C   0  0  0  0  0  0  0  0  0  0  0  0
   -2.5176    3.8236    0.6846 C   0  0  0  0  0  0  0  0  0  0  0  0
   -5.7561   -3.6958    0.8221 C   0  0  0  0  0  0  0  0  0  0  0  0
   -4.1231    4.0603   -1.2166 C   0  0  0  0  0  0  0  0  0  0  0  0
   -0.0772   -0.2559   -3.2927 C   0  0  0  0  0  0  0  0  0  0  0  0
    3.1238   -0.0029    0.2494 C   0  0  0  0  0  0  0  0  0  0  0  0
    4.5790   -0.0611    0.4684 C   0  0  0  0  0  0  0  0  0  0  0  0
    5.1533    0.7504    1.4337 C   0  0  0  0  0  0  0  0  0  0  0  0
    5.3463   -0.9262   -0.2950 C   0  0  0  0  0  0  0  0  0  0  0  0
    6.5317    0.6955    1.6409 C   0  0  0  0  0  0  0  0  0  0  0  0
    6.7246   -0.9813   -0.0878 C   0  0  0  0  0  0  0  0  0  0  0  0
    7.3172   -0.1703    0.8802 C   0  0  0  0  0  0  0  0  0  0  0  0
   -3.9449   -4.3153    1.8180 H   0  0  0  0  0  0  0  0  0  0  0  0
   -4.8237   -3.0432    2.6451 H   0  0  0  0  0  0  0  0  0  0  0  0
   -4.0875    1.3612   -1.0578 H   0  0  0  0  0  0  0  0  0  0  0  0
   -1.3128    1.0490    2.2268 H   0  0  0  0  0  0  0  0  0  0  0  0
    0.5863   -0.9989    0.3874 H   0  0  0  0  0  0  0  0  0  0  0  0
   -2.1549   -0.6284   -2.8997 H   0  0  0  0  0  0  0  0  0  0  0  0
   -1.1447    3.5082    2.3145 H   0  0  0  0  0  0  0  0  0  0  0  0
   -2.4305    4.9057    0.7357 H   0  0  0  0  0  0  0  0  0  0  0  0
   -6.3621   -2.7952    0.6762 H   0  0  0  0  0  0  0  0  0  0  0  0
   -6.3719   -4.4446    1.3299 H   0  0  0  0  0  0  0  0  0  0  0  0
   -5.4884   -4.0861   -0.1655 H   0  0  0  0  0  0  0  0  0  0  0  0
   -5.0835    3.5929   -1.4595 H   0  0  0  0  0  0  0  0  0  0  0  0
   -4.3450    5.0440   -0.7893 H   0  0  0  0  0  0  0  0  0  0  0  0
   -3.5561    4.2010   -2.1421 H   0  0  0  0  0  0  0  0  0  0  0  0
   -0.2188   -0.0475   -4.3480 H   0  0  0  0  0  0  0  0  0  0  0  0
    3.4131   -0.3423   -1.7800 H   0  0  0  0  0  0  0  0  0  0  0  0
    4.5568    1.4337    2.0317 H   0  0  0  0  0  0  0  0  0  0  0  0
    4.9205   -1.5963   -1.0355 H   0  0  0  0  0  0  0  0  0  0  0  0
    6.9935    1.3274    2.3940 H   0  0  0  0  0  0  0  0  0  0  0  0
    7.3359   -1.6607   -0.6747 H   0  0  0  0  0  0  0  0  0  0  0  0
    8.3903   -0.2142    1.0424 H   0  0  0  0  0  0  0  0  0  0  0  0
  1  7  1  0  0  0  0
  1 10  1  0  0  0  0
  2 23  2  0  0  0  0
  3  6  1  0  0  0  0
  3 10  2  0  0  0  0
  4 17  1  0  0  0  0
  4 23  1  0  0  0  0
  4 45  1  0  0  0  0
  5 17  2  0  0  0  0
  5 22  1  0  0  0  0
  6  7  2  0  0  0  0
  6  8  1  0  0  0  0
  7  9  1  0  0  0  0
  8 12  1  0  0  0  0
  8 13  2  0  0  0  0
  9 15  2  0  0  0  0
  9 16  1  0  0  0  0
 10 11  1  0  0  0  0
 11 20  1  0  0  0  0
 11 30  1  0  0  0  0
 11 31  1  0  0  0  0
 12 14  2  0  0  0  0
 12 32  1  0  0  0  0
 13 18  1  0  0  0  0
 13 33  1  0  0  0  0
 14 19  1  0  0  0  0
 14 21  1  0  0  0  0
 15 17  1  0  0  0  0
 15 34  1  0  0  0  0
 16 22  2  0  0  0  0
 16 35  1  0  0  0  0
 18 19  2  0  0  0  0
 18 36  1  0  0  0  0
 19 37  1  0  0  0  0
 20 38  1  0  0  0  0
 20 39  1  0  0  0  0
 20 40  1  0  0  0  0
 21 41  1  0  0  0  0
 21 42  1  0  0  0  0
 21 43  1  0  0  0  0
 22 44  1  0  0  0  0
 23 24  1  0  0  0  0
 24 25  2  0  0  0  0
 24 26  1  0  0  0  0
 25 27  1  0  0  0  0
 25 46  1  0  0  0  0
 26 28  2  0  0  0  0
 26 47  1  0  0  0  0
 27 29  2  0  0  0  0
 27 48  1  0  0  0  0
 28 29  1  0  0  0  0
 28 49  1  0  0  0  0
 29 50  1  0  0  0  0
M  END
> <PUBCHEM_COMPOUND_CID>
9952773

> <PUBCHEM_CONFORMER_RMSD>
0.8

> <PUBCHEM_CONFORMER_DIVERSEORDER>
5
23
6
14
12
9
21
16
7
18
22
20
24
10
8
11
19
4
3
13
17
15
1
25
2

> <PUBCHEM_MMFF94_PARTIAL_CHARGES>
41
1 -0.08
10 0.2
11 0.18
12 -0.15
13 -0.15
14 -0.14
15 -0.15
16 -0.15
17 0.43
18 -0.15
19 -0.15
2 -0.57
21 0.14
22 0.16
23 0.54
24 0.09
25 -0.15
26 -0.15
27 -0.15
28 -0.15
29 -0.15
3 -0.57
32 0.15
33 0.15
34 0.15
35 0.15
36 0.15
37 0.15
4 -0.55
44 0.15
45 0.37
46 0.15
47 0.15
48 0.15
49 0.15
5 -0.62
50 0.15
6 0.17
7 -0.01
8 0.05
9 0.05

> <PUBCHEM_EFFECTIVE_ROTOR_COUNT>
6

> <PUBCHEM_PHARMACOPHORE_FEATURES>
8
1 2 acceptor
1 20 hydrophobe
1 3 acceptor
1 4 donor
5 1 3 6 7 10 rings
6 24 25 26 27 28 29 rings
6 5 9 15 16 17 22 rings
6 8 12 13 14 18 19 rings

> <PUBCHEM_HEAVY_ATOM_COUNT>
29

> <PUBCHEM_ATOM_DEF_STEREO_COUNT>
0

> <PUBCHEM_ATOM_UDEF_STEREO_COUNT>
0

> <PUBCHEM_BOND_DEF_STEREO_COUNT>
0

> <PUBCHEM_BOND_UDEF_STEREO_COUNT>
0

> <PUBCHEM_ISOTOPIC_ATOM_COUNT>
0

> <PUBCHEM_COMPONENT_COUNT>
1

> <PUBCHEM_CACTVS_TAUTO_COUNT>
8

> <PUBCHEM_CONFORMER_ID>
0097DE0500000005

> <PUBCHEM_MMFF94_ENERGY>
84.2171

> <PUBCHEM_FEATURE_SELFOVERLAP>
40.597

> <PUBCHEM_SHAPE_FINGERPRINT>
10319926 262 18340498793942165262
10554248 39 14692571032042501912
10930396 42 18198325429084153787
11607047 74 17111843770824484873
12035758 1 18270141075546619089
12128747 34 18198348342977511030
12422481 6 17702961334139985674
12596602 18 18186799227621185304
12633046 712 18191000362766825634
12788726 201 18116737276873055503
12892183 10 18413390925943242286
12930653 34 18411985719474958286
12988421 55 16487257677439325870
13009979 54 17677911191090257667
13103583 49 15648201584854487052
13383668 251 16558763290817741470
133893 2 17335063846819575087
13583140 156 18130785642546710590
14068700 675 17896320388434336107
14856354 85 18198065974879730934
14950920 106 18261664965777067824
15188451 53 18114460175117152138
15324884 4 17199712608214918487
15513586 35 17055818606374470008
16067689 68 17823960274728645322
17492 54 17201046242399057501
17780758 139 18261107500075163010
17844677 252 18410858789608868984
17980427 26 17544177291524937301
18393751 57 17131281275854401135
19315092 285 17678457691075984846
20600515 1 17985008109212659227
21033648 29 17973455299583806333
21304303 282 18189605057099862461
21315759 148 18410857668670299698
2132832 1 17968384566677753973
21639891 77 18334575798287174329
22182313 1 17489043556355085772
22956985 138 17401766822992600603
23522609 53 17241632554238753476
244849 19 17772771397683436606
2838139 119 17630596826456649732
3380486 145 17560804359800120157
376196 1 17554043239030720077
3886686 26 18046914770688925931
4366758 6 17969775277642619645
4409770 3 18408037399906601769
4938544 92 18261390014586914348
497634 4 17967529095244859990
57527293 21 17772762803633328375
6009941 240 18339078178043476130
7399639 24 17489046893545064575
9981440 41 17987232231845210087

> <PUBCHEM_SHAPE_MULTIPOLES>
579.84
14.77
4.35
2.32
30.28
2.32
-1.88
-4.26
7.73
-11.84
1.45
-0.09
-0.11
2.61

> <PUBCHEM_SHAPE_SELFOVERLAP>
1259.963

> <PUBCHEM_SHAPE_VOLUME>
319.5

> <PUBCHEM_COORDINATE_TYPE>
2
5
10

$$$$
