49830824
  -OEChem-10052115183D

 52 55  0     1  0  0  0  0  0999 V2000
   -1.1902   -2.9892    0.3182 O   0  0  0  0  0  0  0  0  0  0  0  0
   -6.0523    2.5602   -0.9983 O   0  0  0  0  0  0  0  0  0  0  0  0
   -0.0228   -1.0075    0.6651 N   0  0  0  0  0  0  0  0  0  0  0  0
   -2.2571   -0.9981   -0.1040 N   0  0  0  0  0  0  0  0  0  0  0  0
    5.5895    2.2520    0.6400 N   0  0  0  0  0  0  0  0  0  0  0  0
    7.3643    1.0307   -0.4378 N   0  0  0  0  0  0  0  0  0  0  0  0
    2.4287   -1.2797    0.6205 C   0  0  0  0  0  0  0  0  0  0  0  0
    1.1146   -1.7015    1.2705 C   0  0  0  0  0  0  0  0  0  0  0  0
    2.5528    0.2207    0.5527 C   0  0  0  0  0  0  0  0  0  0  0  0
    0.0436    0.4620    0.6439 C   0  0  0  0  0  0  0  0  0  0  0  0
    1.4481    0.9894    0.5756 C   0  0  0  0  0  0  0  0  0  0  0  0
    3.9092    0.8069    0.4413 C   0  0  0  0  0  0  0  0  0  0  0  0
   -1.1582   -1.7550    0.2921 C   0  0  0  0  0  0  0  0  0  0  0  0
    5.0626    0.2331   -0.1563 C   0  0  0  0  0  0  0  0  0  0  0  0
   -3.5051   -1.6039   -0.5100 C   0  0  1  0  0  0  0  0  0  0  0  0
    4.2637    2.0487    0.9229 C   0  0  0  0  0  0  0  0  0  0  0  0
    6.0922    1.1589   -0.0155 C   0  0  0  0  0  0  0  0  0  0  0  0
   -4.6876   -0.7281   -0.1561 C   0  0  0  0  0  0  0  0  0  0  0  0
   -3.4598   -1.9554   -1.9957 C   0  0  0  0  0  0  0  0  0  0  0  0
    5.3635   -0.9741   -0.8076 C   0  0  0  0  0  0  0  0  0  0  0  0
   -4.8274    0.5272   -0.7478 C   0  0  0  0  0  0  0  0  0  0  0  0
   -5.6373   -1.1760    0.7624 C   0  0  0  0  0  0  0  0  0  0  0  0
    6.6668   -1.1593   -1.2654 C   0  0  0  0  0  0  0  0  0  0  0  0
    7.5972   -0.1499   -1.0575 C   0  0  0  0  0  0  0  0  0  0  0  0
   -5.9169    1.3349   -0.4213 C   0  0  0  0  0  0  0  0  0  0  0  0
   -6.7266   -0.3683    1.0891 C   0  0  0  0  0  0  0  0  0  0  0  0
   -6.8666    0.8871    0.4972 C   0  0  0  0  0  0  0  0  0  0  0  0
   -7.1889    3.3344   -0.6185 C   0  0  0  0  0  0  0  0  0  0  0  0
    2.4667   -1.6869   -0.3967 H   0  0  0  0  0  0  0  0  0  0  0  0
    3.2499   -1.7177    1.1994 H   0  0  0  0  0  0  0  0  0  0  0  0
    1.1126   -1.4507    2.3389 H   0  0  0  0  0  0  0  0  0  0  0  0
    0.9992   -2.7875    1.1958 H   0  0  0  0  0  0  0  0  0  0  0  0
   -0.4942    0.8455   -0.2278 H   0  0  0  0  0  0  0  0  0  0  0  0
   -0.4519    0.8276    1.5495 H   0  0  0  0  0  0  0  0  0  0  0  0
    1.5278    2.0721    0.5154 H   0  0  0  0  0  0  0  0  0  0  0  0
   -3.6031   -2.5510    0.0364 H   0  0  0  0  0  0  0  0  0  0  0  0
   -2.2145    0.0128   -0.0864 H   0  0  0  0  0  0  0  0  0  0  0  0
    3.7027    2.8108    1.4467 H   0  0  0  0  0  0  0  0  0  0  0  0
    6.1167    3.0801    0.8795 H   0  0  0  0  0  0  0  0  0  0  0  0
   -3.2773   -1.0740   -2.6207 H   0  0  0  0  0  0  0  0  0  0  0  0
   -2.6537   -2.6680   -2.2034 H   0  0  0  0  0  0  0  0  0  0  0  0
   -4.4020   -2.4096   -2.3217 H   0  0  0  0  0  0  0  0  0  0  0  0
    4.6275   -1.7520   -0.9719 H   0  0  0  0  0  0  0  0  0  0  0  0
   -4.0925    0.8907   -1.4617 H   0  0  0  0  0  0  0  0  0  0  0  0
   -5.5427   -2.1511    1.2326 H   0  0  0  0  0  0  0  0  0  0  0  0
    6.9474   -2.0742   -1.7762 H   0  0  0  0  0  0  0  0  0  0  0  0
    8.6180   -0.2774   -1.4084 H   0  0  0  0  0  0  0  0  0  0  0  0
   -7.4654   -0.7178    1.8046 H   0  0  0  0  0  0  0  0  0  0  0  0
   -7.7361    1.4624    0.7961 H   0  0  0  0  0  0  0  0  0  0  0  0
   -8.1247    2.8442   -0.9080 H   0  0  0  0  0  0  0  0  0  0  0  0
   -7.1654    3.5879    0.4468 H   0  0  0  0  0  0  0  0  0  0  0  0
   -7.1374    4.2774   -1.1725 H   0  0  0  0  0  0  0  0  0  0  0  0
  1 13  2  0  0  0  0
  2 25  1  0  0  0  0
  2 28  1  0  0  0  0
  3  8  1  0  0  0  0
  3 10  1  0  0  0  0
  3 13  1  0  0  0  0
  4 13  1  0  0  0  0
  4 15  1  0  0  0  0
  4 37  1  0  0  0  0
  5 16  1  0  0  0  0
  5 17  1  0  0  0  0
  5 39  1  0  0  0  0
  6 17  1  0  0  0  0
  6 24  2  0  0  0  0
  7  8  1  0  0  0  0
  7  9  1  0  0  0  0
  7 29  1  0  0  0  0
  7 30  1  0  0  0  0
  8 31  1  0  0  0  0
  8 32  1  0  0  0  0
  9 11  2  0  0  0  0
  9 12  1  0  0  0  0
 10 11  1  0  0  0  0
 10 33  1  0  0  0  0
 10 34  1  0  0  0  0
 11 35  1  0  0  0  0
 12 14  1  0  0  0  0
 12 16  2  0  0  0  0
 14 17  2  0  0  0  0
 14 20  1  0  0  0  0
 15 18  1  0  0  0  0
 15 19  1  0  0  0  0
 15 36  1  0  0  0  0
 16 38  1  0  0  0  0
 18 21  2  0  0  0  0
 18 22  1  0  0  0  0
 19 40  1  0  0  0  0
 19 41  1  0  0  0  0
 19 42  1  0  0  0  0
 20 23  2  0  0  0  0
 20 43  1  0  0  0  0
 21 25  1  0  0  0  0
 21 44  1  0  0  0  0
 22 26  2  0  0  0  0
 22 45  1  0  0  0  0
 23 24  1  0  0  0  0
 23 46  1  0  0  0  0
 24 47  1  0  0  0  0
 25 27  2  0  0  0  0
 26 27  1  0  0  0  0
 26 48  1  0  0  0  0
 27 49  1  0  0  0  0
 28 50  1  0  0  0  0
 28 51  1  0  0  0  0
 28 52  1  0  0  0  0
M  END
> <PUBCHEM_COMPOUND_CID>
49830824

> <PUBCHEM_CONFORMER_RMSD>
1

> <PUBCHEM_CONFORMER_DIVERSEORDER>
1
11
71
96
23
44
51
25
59
20
100
72
113
4
49
65
26
104
52
67
105
33
45
17
32
106
10
124
61
53
66
74
69
60
27
57
112
50
15
130
8
107
111
81
18
7
120
16
115
63
46
55
70
42
62
48
122
93
6
31
89
97
39
127
125
14
78
73
54
28
77
109
90
91
79
64
22
76
98
118
95
41
88
29
83
34
117
9
116
119
85
3
84
58
12
43
128
19
99
5
35
24
80
101
103
108
86
40
94
13
38
129
102
126
75
114
121
110
36
37
92
68
2
56
21
87
123
47
30
82

> <PUBCHEM_MMFF94_PARTIAL_CHARGES>
37
1 -0.57
10 0.44
11 -0.29
12 -0.05
13 0.69
15 0.44
16 -0.3
17 0.11
18 -0.14
2 -0.36
20 -0.15
21 -0.15
22 -0.15
23 -0.15
24 0.16
25 0.08
26 -0.15
27 -0.15
28 0.28
3 -0.66
35 0.15
37 0.37
38 0.15
39 0.27
4 -0.73
43 0.15
44 0.15
45 0.15
46 0.15
47 0.15
48 0.15
49 0.15
5 0.03
6 -0.57
7 0.14
8 0.3
9 -0.09

> <PUBCHEM_EFFECTIVE_ROTOR_COUNT>
6.8

> <PUBCHEM_PHARMACOPHORE_FEATURES>
10
1 1 acceptor
1 2 acceptor
1 4 donor
1 5 cation
1 5 donor
1 6 acceptor
5 5 12 14 16 17 rings
6 18 21 22 25 26 27 rings
6 3 7 8 9 10 11 rings
6 6 14 17 20 23 24 rings

> <PUBCHEM_HEAVY_ATOM_COUNT>
28

> <PUBCHEM_ATOM_DEF_STEREO_COUNT>
0

> <PUBCHEM_ATOM_UDEF_STEREO_COUNT>
1

> <PUBCHEM_BOND_DEF_STEREO_COUNT>
0

> <PUBCHEM_BOND_UDEF_STEREO_COUNT>
0

> <PUBCHEM_ISOTOPIC_ATOM_COUNT>
0

> <PUBCHEM_COMPONENT_COUNT>
1

> <PUBCHEM_CACTVS_TAUTO_COUNT>
6

> <PUBCHEM_CONFORMER_ID>
02F85BA800000001

> <PUBCHEM_MMFF94_ENERGY>
70.7169

> <PUBCHEM_FEATURE_SELFOVERLAP>
50.86

> <PUBCHEM_SHAPE_FINGERPRINT>
10066227 112 18342455928760305373
10369192 42 18333733520492868871
106641 1 8502370015062743390
10674148 151 18334295371303342696
10835480 77 18059289998003908288
10864689 126 18270953545198434097
11408170 132 18336554885185039628
11724838 91 11314309473403662178
11796584 16 16486980647769434942
13690498 29 17559101297920286087
13782708 43 13542459873790177307
14068700 675 12895072920640336107
14251732 16 10953735612562408566
14251752 14 18272088288157199370
14647877 103 17531245003337120189
14849402 71 13407088028122865350
14856354 85 16805610304358046235
14933364 13 18409451396827963123
15064981 113 16701452356746620181
15119646 104 15984835800361327822
15183329 4 17775288257003149274
15188451 53 12031795747332904750
15350500 55 17604982634342293869
15461852 350 18343576362007139727
15475509 8 18260271845800442228
15510800 12 11599423846471646877
18222031 100 12607132845907789170
19377110 9 14345791639086784403
20511986 3 17203319070609584902
21033648 29 18190175870916785010
21279426 13 18343301474460656344
21365058 27 16298107596368729603
21424621 283 18186802486826266082
21585482 111 18189614931114702973
21756936 100 18335415807759155131
22864921 10 18043245743558152941
23198884 109 16988846099054263779
23389318 12 11743831500366122442
23559900 14 17346310565763794442
23576562 1 18270104847429509429
24771293 8 18194107750321250216
29717793 49 17418102035681575078
3004659 81 18343302591922338546
38570 142 18408041793025597771
4073 2 18265335191383415746
4098825 35 18202284731674624383
4280585 95 11455890261339326811
4938544 92 16515675612648502805
5104073 3 17749100055415671035
5385378 56 17676200252487634170
5718773 13 9871450038323915869
5758199 1 17240485801490150227
59682541 35 8214137427034568486
59755656 215 18410294696835483062
59755656 520 18113615724675731603
6328613 192 18412262809643019985
6703917 75 17603882129601340515
9689198 14 18335144176440798183

> <PUBCHEM_SHAPE_MULTIPOLES>
544.56
24.05
2.75
1.22
1.15
0.9
-0.25
12.07
-5.61
-3.3
-0.31
-0.28
-0.31
1.78

> <PUBCHEM_SHAPE_SELFOVERLAP>
1181.543

> <PUBCHEM_SHAPE_VOLUME>
295.8

> <PUBCHEM_COORDINATE_TYPE>
2
5
10

$$$$
