42639664
  -OEChem-10062122033D

 71 76  0     1  0  0  0  0  0999 V2000
    4.0718    3.5624   -1.5091 O   0  0  0  0  0  0  0  0  0  0  0  0
    6.6186    3.6034   -0.2000 O   0  0  0  0  0  0  0  0  0  0  0  0
    2.8990    2.7781    1.8566 O   0  0  0  0  0  0  0  0  0  0  0  0
    6.6433    0.7414    0.4815 O   0  0  0  0  0  0  0  0  0  0  0  0
    0.8497    0.8388    0.4780 O   0  0  0  0  0  0  0  0  0  0  0  0
    5.4972   -1.2926   -1.0536 O   0  0  0  0  0  0  0  0  0  0  0  0
    4.4697   -3.6160   -1.2480 O   0  0  0  0  0  0  0  0  0  0  0  0
   -0.1381   -4.0628   -0.3307 O   0  0  0  0  0  0  0  0  0  0  0  0
    0.0576   -1.8893    2.6187 O   0  0  0  0  0  0  0  0  0  0  0  0
   -0.9268   -0.8929   -1.9481 O   0  0  0  0  0  0  0  0  0  0  0  0
   -3.2147    0.1340   -2.4543 O   0  0  0  0  0  0  0  0  0  0  0  0
   -4.5728    0.0508    2.7137 O   0  0  0  0  0  0  0  0  0  0  0  0
   -7.8276    2.0623   -2.3414 O   0  0  0  0  0  0  0  0  0  0  0  0
    4.1818    3.5052   -0.0801 C   0  0  2  0  0  0  0  0  0  0  0  0
    5.5171    2.8442    0.3028 C   0  0  1  0  0  0  0  0  0  0  0  0
    3.0138    2.6372    0.4404 C   0  0  1  0  0  0  0  0  0  0  0  0
    5.6372    1.4239   -0.2744 C   0  0  2  0  0  0  0  0  0  0  0  0
    3.1741    1.1642    0.1183 C   0  0  0  0  0  0  0  0  0  0  0  0
    4.3543    0.6225   -0.2311 C   0  0  0  0  0  0  0  0  0  0  0  0
    4.0797    4.9459    0.4361 C   0  0  0  0  0  0  0  0  0  0  0  0
    1.9282    0.3451    0.1665 C   0  0  0  0  0  0  0  0  0  0  0  0
    4.4478   -0.8102   -0.6412 C   0  0  0  0  0  0  0  0  0  0  0  0
    2.0224   -1.0868   -0.1612 C   0  0  0  0  0  0  0  0  0  0  0  0
    3.2372   -1.6437   -0.5505 C   0  0  0  0  0  0  0  0  0  0  0  0
    0.8777   -1.8906   -0.0842 C   0  0  0  0  0  0  0  0  0  0  0  0
    3.3113   -3.0070   -0.8646 C   0  0  0  0  0  0  0  0  0  0  0  0
    0.9549   -3.2480   -0.3962 C   0  0  0  0  0  0  0  0  0  0  0  0
   -0.4286   -1.3907    0.3177 C   0  0  0  0  0  0  0  0  0  0  0  0
    2.1701   -3.8055   -0.7861 C   0  0  0  0  0  0  0  0  0  0  0  0
   -1.3159   -0.8954   -0.6382 C   0  0  0  0  0  0  0  0  0  0  0  0
   -0.7902   -1.4097    1.6633 C   0  0  0  0  0  0  0  0  0  0  0  0
   -2.5716   -0.4166   -0.2457 C   0  0  0  0  0  0  0  0  0  0  0  0
   -2.9338   -0.4353    1.1028 C   0  0  0  0  0  0  0  0  0  0  0  0
   -2.0403   -0.9331    2.0589 C   0  0  0  0  0  0  0  0  0  0  0  0
   -3.5048    0.1056   -1.2649 C   0  0  0  0  0  0  0  0  0  0  0  0
   -4.2552    0.0673    1.5308 C   0  0  0  0  0  0  0  0  0  0  0  0
   -4.8262    0.6082   -0.8369 C   0  0  0  0  0  0  0  0  0  0  0  0
   -5.1881    0.5898    0.5118 C   0  0  0  0  0  0  0  0  0  0  0  0
    0.0569   -5.4328   -0.6717 C   0  0  0  0  0  0  0  0  0  0  0  0
   -6.4434    1.0693    0.9044 C   0  0  0  0  0  0  0  0  0  0  0  0
   -5.7199    1.1057   -1.7929 C   0  0  0  0  0  0  0  0  0  0  0  0
   -7.3308    1.5644   -0.0516 C   0  0  0  0  0  0  0  0  0  0  0  0
   -6.9700    1.5822   -1.3974 C   0  0  0  0  0  0  0  0  0  0  0  0
   -0.4074   -1.8648    3.9659 C   0  0  0  0  0  0  0  0  0  0  0  0
   -8.6655    2.0720    0.3859 C   0  0  0  0  0  0  0  0  0  0  0  0
    5.6255    2.8234    1.3951 H   0  0  0  0  0  0  0  0  0  0  0  0
    2.0837    3.0079   -0.0099 H   0  0  0  0  0  0  0  0  0  0  0  0
    5.9959    1.4775   -1.3105 H   0  0  0  0  0  0  0  0  0  0  0  0
    4.8200    5.5896   -0.0521 H   0  0  0  0  0  0  0  0  0  0  0  0
    4.2337    5.0052    1.5182 H   0  0  0  0  0  0  0  0  0  0  0  0
    3.0986    5.3750    0.2019 H   0  0  0  0  0  0  0  0  0  0  0  0
    3.2231    3.9822   -1.7305 H   0  0  0  0  0  0  0  0  0  0  0  0
    7.4343    3.1491    0.0726 H   0  0  0  0  0  0  0  0  0  0  0  0
    2.1037    2.2958    2.1406 H   0  0  0  0  0  0  0  0  0  0  0  0
    6.8980   -0.0563   -0.0126 H   0  0  0  0  0  0  0  0  0  0  0  0
    2.3046   -4.8510   -1.0423 H   0  0  0  0  0  0  0  0  0  0  0  0
   -2.3693   -0.9256    3.0915 H   0  0  0  0  0  0  0  0  0  0  0  0
    5.2197   -3.0076   -1.1718 H   0  0  0  0  0  0  0  0  0  0  0  0
   -1.6074   -0.5041   -2.5164 H   0  0  0  0  0  0  0  0  0  0  0  0
   -0.9134   -5.9296   -0.5650 H   0  0  0  0  0  0  0  0  0  0  0  0
    0.7414   -5.9315    0.0231 H   0  0  0  0  0  0  0  0  0  0  0  0
    0.3558   -5.5528   -1.7187 H   0  0  0  0  0  0  0  0  0  0  0  0
   -6.7333    1.0589    1.9523 H   0  0  0  0  0  0  0  0  0  0  0  0
   -5.4503    1.1252   -2.8460 H   0  0  0  0  0  0  0  0  0  0  0  0
    0.3925   -2.2814    4.5874 H   0  0  0  0  0  0  0  0  0  0  0  0
   -1.2812   -2.5105    4.1060 H   0  0  0  0  0  0  0  0  0  0  0  0
   -0.5769   -0.8416    4.3186 H   0  0  0  0  0  0  0  0  0  0  0  0
   -8.7777    3.1274    0.1166 H   0  0  0  0  0  0  0  0  0  0  0  0
   -9.4658    1.4935   -0.0872 H   0  0  0  0  0  0  0  0  0  0  0  0
   -8.7992    1.9932    1.4700 H   0  0  0  0  0  0  0  0  0  0  0  0
   -7.4081    1.9960   -3.2163 H   0  0  0  0  0  0  0  0  0  0  0  0
  1 14  1  0  0  0  0
  1 52  1  0  0  0  0
  2 15  1  0  0  0  0
  2 53  1  0  0  0  0
  3 16  1  0  0  0  0
  3 54  1  0  0  0  0
  4 17  1  0  0  0  0
  4 55  1  0  0  0  0
  5 21  2  0  0  0  0
  6 22  2  0  0  0  0
  7 26  1  0  0  0  0
  7 58  1  0  0  0  0
  8 27  1  0  0  0  0
  8 39  1  0  0  0  0
  9 31  1  0  0  0  0
  9 44  1  0  0  0  0
 10 30  1  0  0  0  0
 10 59  1  0  0  0  0
 11 35  2  0  0  0  0
 12 36  2  0  0  0  0
 13 43  1  0  0  0  0
 13 71  1  0  0  0  0
 14 15  1  0  0  0  0
 14 16  1  0  0  0  0
 14 20  1  0  0  0  0
 15 17  1  0  0  0  0
 15 46  1  0  0  0  0
 16 18  1  0  0  0  0
 16 47  1  0  0  0  0
 17 19  1  0  0  0  0
 17 48  1  0  0  0  0
 18 19  2  0  0  0  0
 18 21  1  0  0  0  0
 19 22  1  0  0  0  0
 20 49  1  0  0  0  0
 20 50  1  0  0  0  0
 20 51  1  0  0  0  0
 21 23  1  0  0  0  0
 22 24  1  0  0  0  0
 23 24  2  0  0  0  0
 23 25  1  0  0  0  0
 24 26  1  0  0  0  0
 25 27  2  0  0  0  0
 25 28  1  0  0  0  0
 26 29  2  0  0  0  0
 27 29  1  0  0  0  0
 28 30  1  0  0  0  0
 28 31  2  0  0  0  0
 29 56  1  0  0  0  0
 30 32  2  0  0  0  0
 31 34  1  0  0  0  0
 32 33  1  0  0  0  0
 32 35  1  0  0  0  0
 33 34  2  0  0  0  0
 33 36  1  0  0  0  0
 34 57  1  0  0  0  0
 35 37  1  0  0  0  0
 36 38  1  0  0  0  0
 37 38  2  0  0  0  0
 37 41  1  0  0  0  0
 38 40  1  0  0  0  0
 39 60  1  0  0  0  0
 39 61  1  0  0  0  0
 39 62  1  0  0  0  0
 40 42  2  0  0  0  0
 40 63  1  0  0  0  0
 41 43  2  0  0  0  0
 41 64  1  0  0  0  0
 42 43  1  0  0  0  0
 42 45  1  0  0  0  0
 44 65  1  0  0  0  0
 44 66  1  0  0  0  0
 44 67  1  0  0  0  0
 45 68  1  0  0  0  0
 45 69  1  0  0  0  0
 45 70  1  0  0  0  0
M  END
> <PUBCHEM_COMPOUND_CID>
42639664

> <PUBCHEM_CONFORMER_RMSD>
1

> <PUBCHEM_CONFORMER_DIVERSEORDER>
1
3
2

> <PUBCHEM_MMFF94_PARTIAL_CHARGES>
53
1 -0.68
10 -0.53
11 -0.57
12 -0.57
13 -0.53
14 0.28
15 0.28
16 0.42
17 0.42
18 -0.12
19 -0.12
2 -0.68
21 0.47
22 0.47
23 0.09
24 0.09
26 0.08
27 0.08
29 -0.15
3 -0.68
30 0.08
31 0.08
32 0.09
33 0.09
34 -0.15
35 0.4
36 0.4
37 0.09
38 0.09
39 0.28
4 -0.68
40 -0.15
41 -0.15
42 -0.14
43 0.08
44 0.28
45 0.14
5 -0.57
52 0.4
53 0.4
54 0.4
55 0.4
56 0.15
57 0.15
58 0.45
59 0.45
6 -0.57
63 0.15
64 0.15
7 -0.53
71 0.45
8 -0.36
9 -0.36

> <PUBCHEM_EFFECTIVE_ROTOR_COUNT>
3.8

> <PUBCHEM_PHARMACOPHORE_FEATURES>
23
1 1 acceptor
1 1 donor
1 10 donor
1 11 acceptor
1 12 acceptor
1 13 donor
1 2 acceptor
1 2 donor
1 3 acceptor
1 3 donor
1 4 acceptor
1 4 donor
1 5 acceptor
1 6 acceptor
1 7 donor
1 8 acceptor
1 9 acceptor
6 14 15 16 17 18 19 rings
6 18 19 21 22 23 24 rings
6 23 24 25 26 27 29 rings
6 28 30 31 32 33 34 rings
6 32 33 35 36 37 38 rings
6 37 38 40 41 42 43 rings

> <PUBCHEM_HEAVY_ATOM_COUNT>
45

> <PUBCHEM_ATOM_DEF_STEREO_COUNT>
4

> <PUBCHEM_ATOM_UDEF_STEREO_COUNT>
0

> <PUBCHEM_BOND_DEF_STEREO_COUNT>
0

> <PUBCHEM_BOND_UDEF_STEREO_COUNT>
0

> <PUBCHEM_ISOTOPIC_ATOM_COUNT>
0

> <PUBCHEM_COMPONENT_COUNT>
1

> <PUBCHEM_CACTVS_TAUTO_COUNT>
829

> <PUBCHEM_CONFORMER_ID>
028AA13000000001

> <PUBCHEM_MMFF94_ENERGY>
171.8917

> <PUBCHEM_FEATURE_SELFOVERLAP>
116.834

> <PUBCHEM_SHAPE_FINGERPRINT>
10411042 1 17836370346397199382
10673678 19 18343026596675174639
10675989 125 18342454859609452024
11017883 126 17488466269347696262
11456790 92 17968650498236678056
11479125 193 18340763840537541561
12107698 1 18198061383343108037
12422481 6 17604430828969149380
12522641 24 17677886830288755339
14117953 113 18343025472332395756
14415360 78 18410576197265740110
14747281 78 18263663821665214772
15183329 4 16845291644597348549
15274700 147 16025932624093165692
15324884 4 17971787512032327626
15328829 1 17346032265142656135
15439362 3 18341611547085892540
15444296 8 16544975131163458311
15484559 13 18271531888493934494
16090146 7 16917078745294135791
17899979 129 18411985732565296137
20511986 3 17346588656132188720
20554085 129 17095526150003646955
20715895 44 18412542150432518992
21033648 29 17676492769450163657
21133410 38 18129679499310517449
22121540 332 17822842066311397613
22122407 14 18198921235911948721
23522609 53 17417263018384548369
24893989 43 12253060367225955464
3388396 114 18131637781170256281
376196 1 18333732446297416203
397830 11 18261968418354763315
4093350 32 18265051345753218263
58902169 19 17917987231337217967
6677587 24 18048002269804151199
6697151 62 18193839232469613554
70251023 43 17768254509807722494
9658208 31 17530977868818516867

> <PUBCHEM_SHAPE_MULTIPOLES>
849.78
18.21
5.49
2.2
24.76
1.41
1.62
-20.58
-4.94
-9.65
-0.96
2.74
0.74
2.41

> <PUBCHEM_SHAPE_SELFOVERLAP>
1934.079

> <PUBCHEM_SHAPE_VOLUME>
438.6

> <PUBCHEM_COORDINATE_TYPE>
2
5
10

$$$$
