49830654
  -OEChem-10052115183D

 68 71  0     0  0  0  0  0  0999 V2000
   -0.0046   -3.2310   -0.3558 O   0  0  0  0  0  0  0  0  0  0  0  0
    1.0672    4.7914   -1.0243 O   0  0  0  0  0  0  0  0  0  0  0  0
    3.0183   -0.1723    0.2644 N   0  0  0  0  0  0  0  0  0  0  0  0
    4.2947   -0.4725   -0.0303 N   0  0  0  0  0  0  0  0  0  0  0  0
    0.7525   -1.1097    0.2732 N   0  0  0  0  0  0  0  0  0  0  0  0
   -0.7934    3.9609    0.1212 N   0  0  0  0  0  0  0  0  0  0  0  0
   -1.4925   -1.6058    0.4373 N   0  0  0  0  0  0  0  0  0  0  0  0
   -3.2846    4.9055   -2.5027 N   0  0  0  0  0  0  0  0  0  0  0  0
    5.4389   -2.4372   -0.8890 C   0  0  0  0  0  0  0  0  0  0  0  0
    4.2174   -1.7338   -0.4630 C   0  0  0  0  0  0  0  0  0  0  0  0
    6.7767   -1.6149   -0.7968 C   0  0  0  0  0  0  0  0  0  0  0  0
    5.7025   -3.7228   -0.0324 C   0  0  0  0  0  0  0  0  0  0  0  0
    5.3569   -2.8969   -2.3850 C   0  0  0  0  0  0  0  0  0  0  0  0
    2.9019   -2.2349   -0.4448 C   0  0  0  0  0  0  0  0  0  0  0  0
    2.1445   -1.1941    0.0342 C   0  0  0  0  0  0  0  0  0  0  0  0
    2.7048    1.0949    0.7592 C   0  0  0  0  0  0  0  0  0  0  0  0
    1.8186    1.9161    0.0621 C   0  0  0  0  0  0  0  0  0  0  0  0
    3.2770    1.5395    1.9512 C   0  0  0  0  0  0  0  0  0  0  0  0
    1.5044    3.1820    0.5570 C   0  0  0  0  0  0  0  0  0  0  0  0
   -0.2206   -2.1018    0.0722 C   0  0  0  0  0  0  0  0  0  0  0  0
    2.9626    2.8052    2.4463 C   0  0  0  0  0  0  0  0  0  0  0  0
    2.0766    3.6265    1.7490 C   0  0  0  0  0  0  0  0  0  0  0  0
    0.5810    4.0392   -0.1695 C   0  0  0  0  0  0  0  0  0  0  0  0
   -2.7286   -2.2623    0.3934 C   0  0  0  0  0  0  0  0  0  0  0  0
   -1.7840    4.7782   -0.5761 C   0  0  0  0  0  0  0  0  0  0  0  0
   -3.9291   -1.5656    0.1794 C   0  0  0  0  0  0  0  0  0  0  0  0
   -5.1488   -2.2828    0.1452 C   0  0  0  0  0  0  0  0  0  0  0  0
   -2.3066    4.0703   -1.8176 C   0  0  0  0  0  0  0  0  0  0  0  0
   -1.3211    3.0603    1.1366 C   0  0  0  0  0  0  0  0  0  0  0  0
   -2.7305   -3.6461    0.5711 C   0  0  0  0  0  0  0  0  0  0  0  0
   -3.9460   -0.1731   -0.0014 C   0  0  0  0  0  0  0  0  0  0  0  0
   -5.1319   -3.6754    0.3260 C   0  0  0  0  0  0  0  0  0  0  0  0
   -3.9298   -4.3512    0.5375 C   0  0  0  0  0  0  0  0  0  0  0  0
   -6.3492   -1.5862   -0.0687 C   0  0  0  0  0  0  0  0  0  0  0  0
   -5.1480    0.5028   -0.2129 C   0  0  0  0  0  0  0  0  0  0  0  0
   -6.3474   -0.2024   -0.2464 C   0  0  0  0  0  0  0  0  0  0  0  0
    7.6382   -2.2046   -1.1302 H   0  0  0  0  0  0  0  0  0  0  0  0
    6.7243   -0.7147   -1.4202 H   0  0  0  0  0  0  0  0  0  0  0  0
    6.9672   -1.2955    0.2345 H   0  0  0  0  0  0  0  0  0  0  0  0
    6.6118   -4.2428   -0.3545 H   0  0  0  0  0  0  0  0  0  0  0  0
    5.8140   -3.4657    1.0274 H   0  0  0  0  0  0  0  0  0  0  0  0
    4.8689   -4.4297   -0.1151 H   0  0  0  0  0  0  0  0  0  0  0  0
    5.2156   -2.0350   -3.0477 H   0  0  0  0  0  0  0  0  0  0  0  0
    4.5122   -3.5772   -2.5429 H   0  0  0  0  0  0  0  0  0  0  0  0
    6.2677   -3.4206   -2.6966 H   0  0  0  0  0  0  0  0  0  0  0  0
    2.5624   -3.2171   -0.7395 H   0  0  0  0  0  0  0  0  0  0  0  0
    0.4277   -0.2267    0.6551 H   0  0  0  0  0  0  0  0  0  0  0  0
    1.3750    1.5820   -0.8738 H   0  0  0  0  0  0  0  0  0  0  0  0
    3.9663    0.9110    2.5100 H   0  0  0  0  0  0  0  0  0  0  0  0
    3.4070    3.1509    3.3750 H   0  0  0  0  0  0  0  0  0  0  0  0
    1.8385    4.6107    2.1441 H   0  0  0  0  0  0  0  0  0  0  0  0
   -1.5167   -0.6030    0.5870 H   0  0  0  0  0  0  0  0  0  0  0  0
   -2.5937    5.0239    0.1214 H   0  0  0  0  0  0  0  0  0  0  0  0
   -1.3045    5.7208   -0.8669 H   0  0  0  0  0  0  0  0  0  0  0  0
   -1.4812    3.8470   -2.5027 H   0  0  0  0  0  0  0  0  0  0  0  0
   -2.7705    3.1145   -1.5502 H   0  0  0  0  0  0  0  0  0  0  0  0
   -2.1742    2.5167    0.7232 H   0  0  0  0  0  0  0  0  0  0  0  0
   -0.5980    2.3302    1.5001 H   0  0  0  0  0  0  0  0  0  0  0  0
   -1.6621    3.6642    1.9832 H   0  0  0  0  0  0  0  0  0  0  0  0
   -1.8271   -4.2098    0.7804 H   0  0  0  0  0  0  0  0  0  0  0  0
   -3.0436    0.4288   -0.0031 H   0  0  0  0  0  0  0  0  0  0  0  0
   -6.0576   -4.2468    0.3058 H   0  0  0  0  0  0  0  0  0  0  0  0
   -3.9324   -5.4273    0.6855 H   0  0  0  0  0  0  0  0  0  0  0  0
   -7.2986   -2.1170   -0.0990 H   0  0  0  0  0  0  0  0  0  0  0  0
   -5.1469    1.5797   -0.3555 H   0  0  0  0  0  0  0  0  0  0  0  0
   -7.2827    0.3243   -0.4120 H   0  0  0  0  0  0  0  0  0  0  0  0
   -3.6613    4.3985   -3.3024 H   0  0  0  0  0  0  0  0  0  0  0  0
   -4.0733    5.0890   -1.8837 H   0  0  0  0  0  0  0  0  0  0  0  0
  1 20  2  0  0  0  0
  2 23  2  0  0  0  0
  3  4  1  0  0  0  0
  3 15  1  0  0  0  0
  3 16  1  0  0  0  0
  4 10  2  0  0  0  0
  5 15  1  0  0  0  0
  5 20  1  0  0  0  0
  5 47  1  0  0  0  0
  6 23  1  0  0  0  0
  6 25  1  0  0  0  0
  6 29  1  0  0  0  0
  7 20  1  0  0  0  0
  7 24  1  0  0  0  0
  7 52  1  0  0  0  0
  8 28  1  0  0  0  0
  8 67  1  0  0  0  0
  8 68  1  0  0  0  0
  9 10  1  0  0  0  0
  9 11  1  0  0  0  0
  9 12  1  0  0  0  0
  9 13  1  0  0  0  0
 10 14  1  0  0  0  0
 11 37  1  0  0  0  0
 11 38  1  0  0  0  0
 11 39  1  0  0  0  0
 12 40  1  0  0  0  0
 12 41  1  0  0  0  0
 12 42  1  0  0  0  0
 13 43  1  0  0  0  0
 13 44  1  0  0  0  0
 13 45  1  0  0  0  0
 14 15  2  0  0  0  0
 14 46  1  0  0  0  0
 16 17  1  0  0  0  0
 16 18  2  0  0  0  0
 17 19  2  0  0  0  0
 17 48  1  0  0  0  0
 18 21  1  0  0  0  0
 18 49  1  0  0  0  0
 19 22  1  0  0  0  0
 19 23  1  0  0  0  0
 21 22  2  0  0  0  0
 21 50  1  0  0  0  0
 22 51  1  0  0  0  0
 24 26  1  0  0  0  0
 24 30  2  0  0  0  0
 25 28  1  0  0  0  0
 25 53  1  0  0  0  0
 25 54  1  0  0  0  0
 26 27  1  0  0  0  0
 26 31  2  0  0  0  0
 27 32  1  0  0  0  0
 27 34  2  0  0  0  0
 28 55  1  0  0  0  0
 28 56  1  0  0  0  0
 29 57  1  0  0  0  0
 29 58  1  0  0  0  0
 29 59  1  0  0  0  0
 30 33  1  0  0  0  0
 30 60  1  0  0  0  0
 31 35  1  0  0  0  0
 31 61  1  0  0  0  0
 32 33  2  0  0  0  0
 32 62  1  0  0  0  0
 33 63  1  0  0  0  0
 34 36  1  0  0  0  0
 34 64  1  0  0  0  0
 35 36  2  0  0  0  0
 35 65  1  0  0  0  0
 36 66  1  0  0  0  0
M  END
> <PUBCHEM_COMPOUND_CID>
49830654

> <PUBCHEM_CONFORMER_RMSD>
1

> <PUBCHEM_CONFORMER_DIVERSEORDER>
1
207
199
153
99
174
173
75
130
180
181
145
45
109
176
54
122
204
203
86
195
107
119
114
165
164
167
35
168
103
93
161
193
205
66
197
152
127
81
125
166
20
146
208
79
118
185
187
201
144
183
56
158
108
40
128
29
73
87
68
111
132
42
198
59
148
143
210
149
105
170
206
55
190
157
156
21
78
26
72
151
67
191
140
18
214
52
115
211
139
85
129
90
117
124
182
177
202
131
71
69
49
159
188
17
28
100
41
98
104
178
25
43
154
53
209
8
82
91
155
212
80
19
126
74
22
11
65
110
134
84
76
48
138
147
27
36
92
196
112
57
15
142
62
163
150
16
70
3
137
6
136
83
2
121
123
213
133
38
97
200
63
12
37
94
189
24
77
64
184
47
96
58
10
192
95
175
106
160
13
162
101
46
23
88
171
141
32
135
14
31
179
102
33
61
5
169
4
51
34
172
60
186
7
120
50
30
113
194
89
116
39
9
44

> <PUBCHEM_MMFF94_PARTIAL_CHARGES>
47
1 -0.57
10 0.11
14 -0.15
15 -0.09
16 -0.02
17 -0.15
18 -0.15
19 0.09
2 -0.57
20 0.69
21 -0.15
22 -0.15
23 0.54
24 0.12
25 0.3
28 0.27
29 0.3
3 0.59
30 -0.15
31 -0.15
32 -0.15
33 -0.15
34 -0.15
35 -0.15
36 -0.15
4 -0.71
46 0.15
47 0.37
48 0.15
49 0.15
5 -0.49
50 0.15
51 0.15
52 0.37
6 -0.66
60 0.15
61 0.15
62 0.15
63 0.15
64 0.15
65 0.15
66 0.15
67 0.36
68 0.36
7 -0.55
8 -0.99
9 0.18

> <PUBCHEM_EFFECTIVE_ROTOR_COUNT>
10

> <PUBCHEM_PHARMACOPHORE_FEATURES>
12
1 1 acceptor
1 2 acceptor
1 4 acceptor
1 5 donor
1 7 donor
1 8 cation
1 8 donor
4 9 11 12 13 hydrophobe
5 3 4 10 14 15 rings
6 16 17 18 19 21 22 rings
6 24 26 27 30 32 33 rings
6 26 27 31 34 35 36 rings

> <PUBCHEM_HEAVY_ATOM_COUNT>
36

> <PUBCHEM_ATOM_DEF_STEREO_COUNT>
0

> <PUBCHEM_ATOM_UDEF_STEREO_COUNT>
0

> <PUBCHEM_BOND_DEF_STEREO_COUNT>
0

> <PUBCHEM_BOND_UDEF_STEREO_COUNT>
0

> <PUBCHEM_ISOTOPIC_ATOM_COUNT>
0

> <PUBCHEM_COMPONENT_COUNT>
1

> <PUBCHEM_CACTVS_TAUTO_COUNT>
7

> <PUBCHEM_CONFORMER_ID>
02F85AFE00000001

> <PUBCHEM_MMFF94_ENERGY>
124.7274

> <PUBCHEM_FEATURE_SELFOVERLAP>
60.972

> <PUBCHEM_SHAPE_FINGERPRINT>
10290309 65 17257946887990083849
10864689 126 18264195917138116093
11093857 5 18194950860221204872
11093857 51 17328865907736177413
11513181 2 17986112026954330111
12645989 146 18343582936727266455
12788726 201 18189903002760013562
12925494 130 18411697712970562667
12978246 48 17689712387172723937
1361 87 18338506444391870277
14114211 80 16174567896581272265
150020 26 17981884460822666857
15320467 1 17761493999523583553
15400415 2 17114384200940712057
16067689 391 17053298121617549694
16988056 13 18340488988436856660
16993438 75 17974018245210306545
21049683 271 18198074758308844758
21133410 127 17683234030329296221
23559900 14 18341611555349448803
25223398 141 18043816385533893269
3103668 31 18263648355472189789
4144715 1 18265338489707530155
42626532 9 18042982049582641291
437795 96 18264187249851966573
9961470 85 18342734135863711457

> <PUBCHEM_SHAPE_MULTIPOLES>
699.24
14.39
8.44
1.57
2.42
8.2
0.23
-17.18
2.87
1.72
1.9
-1.32
1.79
5.39

> <PUBCHEM_SHAPE_SELFOVERLAP>
1508.041

> <PUBCHEM_SHAPE_VOLUME>
384.3

> <PUBCHEM_COORDINATE_TYPE>
2
5
10

$$$$
