49830996
  -OEChem-10052115173D

 21 22  0     0  0  0  0  0  0999 V2000
   -3.5836    1.0148   -0.0003 O   0  0  0  0  0  0  0  0  0  0  0  0
   -0.0117    0.5133    0.0003 N   0  0  0  0  0  0  0  0  0  0  0  0
   -2.3449   -0.8958   -0.0005 N   0  0  0  0  0  0  0  0  0  0  0  0
   -1.1826   -1.5816   -0.0003 N   0  0  0  0  0  0  0  0  0  0  0  0
   -1.2270    1.3081    0.0008 C   0  0  0  0  0  0  0  0  0  0  0  0
   -0.0847   -0.8800    0.0001 C   0  0  0  0  0  0  0  0  0  0  0  0
    1.2322    1.1341    0.0000 C   0  0  0  0  0  0  0  0  0  0  0  0
    2.3959    0.4614    0.0000 C   0  0  0  0  0  0  0  0  0  0  0  0
    1.1951   -1.6731    0.0002 C   0  0  0  0  0  0  0  0  0  0  0  0
   -2.4768    0.4688    0.0000 C   0  0  0  0  0  0  0  0  0  0  0  0
    2.3516   -0.9926    0.0005 C   0  0  0  0  0  0  0  0  0  0  0  0
    3.7365    1.1225   -0.0009 C   0  0  0  0  0  0  0  0  0  0  0  0
   -1.2549    1.9467   -0.8899 H   0  0  0  0  0  0  0  0  0  0  0  0
   -1.2551    1.9455    0.8923 H   0  0  0  0  0  0  0  0  0  0  0  0
    1.1878    2.2177   -0.0004 H   0  0  0  0  0  0  0  0  0  0  0  0
    1.1545   -2.7551    0.0003 H   0  0  0  0  0  0  0  0  0  0  0  0
    3.2937   -1.5320    0.0007 H   0  0  0  0  0  0  0  0  0  0  0  0
   -3.1731   -1.4829   -0.0011 H   0  0  0  0  0  0  0  0  0  0  0  0
    4.3079    0.8341   -0.8896 H   0  0  0  0  0  0  0  0  0  0  0  0
    4.3086    0.8351    0.8878 H   0  0  0  0  0  0  0  0  0  0  0  0
    3.6510    2.2145   -0.0014 H   0  0  0  0  0  0  0  0  0  0  0  0
  1 10  2  0  0  0  0
  2  5  1  0  0  0  0
  2  6  1  0  0  0  0
  2  7  1  0  0  0  0
  3  4  1  0  0  0  0
  3 10  1  0  0  0  0
  3 18  1  0  0  0  0
  4  6  2  0  0  0  0
  5 10  1  0  0  0  0
  5 13  1  0  0  0  0
  5 14  1  0  0  0  0
  6  9  1  0  0  0  0
  7  8  2  0  0  0  0
  7 15  1  0  0  0  0
  8 11  1  0  0  0  0
  8 12  1  0  0  0  0
  9 11  2  0  0  0  0
  9 16  1  0  0  0  0
 11 17  1  0  0  0  0
 12 19  1  0  0  0  0
 12 20  1  0  0  0  0
 12 21  1  0  0  0  0
M  END
> <PUBCHEM_COMPOUND_CID>
49830996

> <PUBCHEM_CONFORMER_RMSD>
0.4

> <PUBCHEM_CONFORMER_DIVERSEORDER>
1

> <PUBCHEM_MMFF94_PARTIAL_CHARGES>
16
1 -0.57
10 0.57
11 -0.15
12 0.14
15 0.15
16 0.15
17 0.15
18 0.37
2 -0.52
3 -0.37
4 -0.51
5 0.43
6 0.49
7 -0.05
8 -0.14
9 -0.14

> <PUBCHEM_EFFECTIVE_ROTOR_COUNT>
0.4

> <PUBCHEM_PHARMACOPHORE_FEATURES>
5
1 1 acceptor
1 3 donor
3 2 4 6 cation
6 2 3 4 5 6 10 rings
6 2 6 7 8 9 11 rings

> <PUBCHEM_HEAVY_ATOM_COUNT>
12

> <PUBCHEM_ATOM_DEF_STEREO_COUNT>
0

> <PUBCHEM_ATOM_UDEF_STEREO_COUNT>
0

> <PUBCHEM_BOND_DEF_STEREO_COUNT>
0

> <PUBCHEM_BOND_UDEF_STEREO_COUNT>
0

> <PUBCHEM_ISOTOPIC_ATOM_COUNT>
0

> <PUBCHEM_COMPONENT_COUNT>
1

> <PUBCHEM_CACTVS_TAUTO_COUNT>
5

> <PUBCHEM_CONFORMER_ID>
02F85C5400000001

> <PUBCHEM_MMFF94_ENERGY>
31.6872

> <PUBCHEM_FEATURE_SELFOVERLAP>
25.403

> <PUBCHEM_SHAPE_FINGERPRINT>
10608611 8 18410008814732015100
11132069 177 18411132563250431240
11471102 20 18338793421084094677
12897270 3 18411983567811783388
12932764 1 17530961332872159918
13380535 21 18410867559135658018
13380535 76 18410571794934693850
13897977 150 18411415128811224877
14325111 11 18410855460133618432
14897335 6 18411412912549824550
15775835 57 18411704287431602576
16945 1 18410855425884500454
17844478 74 18040727935097242545
193761 8 17617941327145059492
20201158 50 18411980234795861838
20645477 70 18268143167786370127
20871998 184 18128542758800392943
21040471 1 18410855507699973094
21501502 16 18411131437589275894
23235685 24 18410287021328102348
23402655 69 18342444908291144061
23463225 33 18334289851827287906
23552423 10 18333733519912320814
23559900 14 18272656788279538060
2748010 2 18410863165394754806
528886 8 18411132554401767496
53812653 166 18343297098131782872
63268167 104 18412548677980767553
6333449 129 18341047518430840133
7364860 26 18270399370036680358

> <PUBCHEM_SHAPE_MULTIPOLES>
226.14
5.13
1.74
0.59
0.19
0.38
0
-1.83
0
-0.17
0
-0.06
-0.01
0

> <PUBCHEM_SHAPE_SELFOVERLAP>
480.062

> <PUBCHEM_SHAPE_VOLUME>
124.9

> <PUBCHEM_COORDINATE_TYPE>
2
5
10

$$$$
