44352951
  -OEChem-10052115143D

 66 73  0     1  0  0  0  0  0999 V2000
   -1.2323   -0.3939    2.0653 O   0  0  0  0  0  0  0  0  0  0  0  0
   -2.0025    0.2526   -1.1149 O   0  0  0  0  0  0  0  0  0  0  0  0
    5.5026   -1.0981   -0.8050 O   0  0  0  0  0  0  0  0  0  0  0  0
   -5.6596    0.5056   -0.1523 O   0  0  0  0  0  0  0  0  0  0  0  0
   -0.4562    1.3582    0.7471 N   0  0  0  0  0  0  0  0  0  0  0  0
    0.2535   -1.5569    0.7048 N   0  0  0  0  0  0  0  0  0  0  0  0
   -4.3134   -1.3544   -0.5199 N   0  0  0  0  0  0  0  0  0  0  0  0
    5.3593    1.2353   -0.9019 N   0  0  0  0  0  0  0  0  0  0  0  0
   -1.6539    0.7185    1.2709 C   0  0  1  0  0  0  0  0  0  0  0  0
   -2.6682    0.3461    0.1525 C   0  0  2  0  0  0  0  0  0  0  0  0
   -1.0234   -1.6039    1.3795 C   0  0  2  0  0  0  0  0  0  0  0  0
   -3.3100   -1.0048    0.4559 C   0  0  2  0  0  0  0  0  0  0  0  0
   -2.2112   -2.0618    0.5208 C   0  0  0  0  0  0  0  0  0  0  0  0
    0.7854    0.8467    0.4489 C   0  0  0  0  0  0  0  0  0  0  0  0
    1.1206   -0.5389    0.4187 C   0  0  0  0  0  0  0  0  0  0  0  0
    1.8582    1.7324    0.0570 C   0  0  0  0  0  0  0  0  0  0  0  0
    2.4832   -0.8356    0.0074 C   0  0  0  0  0  0  0  0  0  0  0  0
   -0.2931    2.7021    0.3805 C   0  0  0  0  0  0  0  0  0  0  0  0
   -2.3662    1.5579    2.3575 C   0  0  0  0  0  0  0  0  0  0  0  0
    1.0331   -2.6843    0.4264 C   0  0  0  0  0  0  0  0  0  0  0  0
    1.0756    2.9631    0.0679 C   0  0  0  0  0  0  0  0  0  0  0  0
    3.1775    1.4326   -0.2666 C   0  0  0  0  0  0  0  0  0  0  0  0
    3.4884    0.0819   -0.2906 C   0  0  0  0  0  0  0  0  0  0  0  0
    2.3461   -2.2970    0.0251 C   0  0  0  0  0  0  0  0  0  0  0  0
    4.3556    2.2531   -0.6726 C   0  0  0  0  0  0  0  0  0  0  0  0
   -1.2412    3.7413    0.2762 C   0  0  0  0  0  0  0  0  0  0  0  0
    4.8873   -0.0564   -0.6904 C   0  0  0  0  0  0  0  0  0  0  0  0
    0.6737   -4.0454    0.5210 C   0  0  0  0  0  0  0  0  0  0  0  0
    1.4528    4.2925   -0.2510 C   0  0  0  0  0  0  0  0  0  0  0  0
   -4.0841   -2.6038   -1.2539 C   0  0  0  0  0  0  0  0  0  0  0  0
    3.2602   -3.3365   -0.2845 C   0  0  0  0  0  0  0  0  0  0  0  0
   -5.4386   -0.5496   -0.7525 C   0  0  0  0  0  0  0  0  0  0  0  0
   -2.9160    0.3824   -2.1966 C   0  0  0  0  0  0  0  0  0  0  0  0
   -0.8287    5.0354   -0.0514 C   0  0  0  0  0  0  0  0  0  0  0  0
    0.5048    5.3140   -0.2961 C   0  0  0  0  0  0  0  0  0  0  0  0
    1.6101   -5.0294    0.2073 C   0  0  0  0  0  0  0  0  0  0  0  0
    2.8887   -4.6809   -0.1920 C   0  0  0  0  0  0  0  0  0  0  0  0
   -6.4179   -1.0202   -1.7986 C   0  0  0  0  0  0  0  0  0  0  0  0
   -3.3938    1.1631    0.0885 H   0  0  0  0  0  0  0  0  0  0  0  0
   -0.8915   -2.3491    2.1746 H   0  0  0  0  0  0  0  0  0  0  0  0
   -3.8247   -0.9460    1.4238 H   0  0  0  0  0  0  0  0  0  0  0  0
   -2.6104   -2.9827    0.9659 H   0  0  0  0  0  0  0  0  0  0  0  0
   -1.8050   -2.3384   -0.4565 H   0  0  0  0  0  0  0  0  0  0  0  0
   -1.6450    1.9542    3.0831 H   0  0  0  0  0  0  0  0  0  0  0  0
   -3.0660    0.9354    2.9299 H   0  0  0  0  0  0  0  0  0  0  0  0
   -2.9468    2.3932    1.9647 H   0  0  0  0  0  0  0  0  0  0  0  0
    4.1845    2.7977   -1.6041 H   0  0  0  0  0  0  0  0  0  0  0  0
    4.6959    2.9175    0.1251 H   0  0  0  0  0  0  0  0  0  0  0  0
   -2.2993    3.5620    0.4248 H   0  0  0  0  0  0  0  0  0  0  0  0
   -0.3242   -4.3401    0.8325 H   0  0  0  0  0  0  0  0  0  0  0  0
    2.4877    4.5254   -0.4893 H   0  0  0  0  0  0  0  0  0  0  0  0
   -3.1745   -2.5622   -1.8562 H   0  0  0  0  0  0  0  0  0  0  0  0
   -4.8876   -2.8313   -1.9552 H   0  0  0  0  0  0  0  0  0  0  0  0
   -4.0612   -3.4451   -0.5551 H   0  0  0  0  0  0  0  0  0  0  0  0
    4.2713   -3.1118   -0.6045 H   0  0  0  0  0  0  0  0  0  0  0  0
    6.3106    1.4411   -1.1902 H   0  0  0  0  0  0  0  0  0  0  0  0
   -2.3504    0.8485   -3.0120 H   0  0  0  0  0  0  0  0  0  0  0  0
   -3.7490    1.0606   -1.9944 H   0  0  0  0  0  0  0  0  0  0  0  0
   -3.2346   -0.5752   -2.5993 H   0  0  0  0  0  0  0  0  0  0  0  0
   -1.5669    5.8302   -0.1195 H   0  0  0  0  0  0  0  0  0  0  0  0
    0.8115    6.3244   -0.5507 H   0  0  0  0  0  0  0  0  0  0  0  0
    1.3318   -6.0773    0.2775 H   0  0  0  0  0  0  0  0  0  0  0  0
    3.6106   -5.4556   -0.4357 H   0  0  0  0  0  0  0  0  0  0  0  0
   -6.8535   -1.9800   -1.5090 H   0  0  0  0  0  0  0  0  0  0  0  0
   -7.2326   -0.2935   -1.8808 H   0  0  0  0  0  0  0  0  0  0  0  0
   -5.9319   -1.0884   -2.7754 H   0  0  0  0  0  0  0  0  0  0  0  0
  1  9  1  0  0  0  0
  1 11  1  0  0  0  0
  2 10  1  0  0  0  0
  2 33  1  0  0  0  0
  3 27  2  0  0  0  0
  4 32  2  0  0  0  0
  5  9  1  0  0  0  0
  5 14  1  0  0  0  0
  5 18  1  0  0  0  0
  6 11  1  0  0  0  0
  6 15  1  0  0  0  0
  6 20  1  0  0  0  0
  7 12  1  0  0  0  0
  7 30  1  0  0  0  0
  7 32  1  0  0  0  0
  8 25  1  0  0  0  0
  8 27  1  0  0  0  0
  8 56  1  0  0  0  0
  9 10  1  0  0  0  0
  9 19  1  0  0  0  0
 10 12  1  0  0  0  0
 10 39  1  0  0  0  0
 11 13  1  0  0  0  0
 11 40  1  0  0  0  0
 12 13  1  0  0  0  0
 12 41  1  0  0  0  0
 13 42  1  0  0  0  0
 13 43  1  0  0  0  0
 14 15  2  0  0  0  0
 14 16  1  0  0  0  0
 15 17  1  0  0  0  0
 16 21  1  0  0  0  0
 16 22  2  0  0  0  0
 17 23  2  0  0  0  0
 17 24  1  0  0  0  0
 18 21  1  0  0  0  0
 18 26  2  0  0  0  0
 19 44  1  0  0  0  0
 19 45  1  0  0  0  0
 19 46  1  0  0  0  0
 20 24  1  0  0  0  0
 20 28  2  0  0  0  0
 21 29  2  0  0  0  0
 22 23  1  0  0  0  0
 22 25  1  0  0  0  0
 23 27  1  0  0  0  0
 24 31  2  0  0  0  0
 25 47  1  0  0  0  0
 25 48  1  0  0  0  0
 26 34  1  0  0  0  0
 26 49  1  0  0  0  0
 28 36  1  0  0  0  0
 28 50  1  0  0  0  0
 29 35  1  0  0  0  0
 29 51  1  0  0  0  0
 30 52  1  0  0  0  0
 30 53  1  0  0  0  0
 30 54  1  0  0  0  0
 31 37  1  0  0  0  0
 31 55  1  0  0  0  0
 32 38  1  0  0  0  0
 33 57  1  0  0  0  0
 33 58  1  0  0  0  0
 33 59  1  0  0  0  0
 34 35  2  0  0  0  0
 34 60  1  0  0  0  0
 35 61  1  0  0  0  0
 36 37  2  0  0  0  0
 36 62  1  0  0  0  0
 37 63  1  0  0  0  0
 38 64  1  0  0  0  0
 38 65  1  0  0  0  0
 38 66  1  0  0  0  0
M  END
> <PUBCHEM_COMPOUND_CID>
44352951

> <PUBCHEM_CONFORMER_RMSD>
0.8

> <PUBCHEM_CONFORMER_DIVERSEORDER>
1
3
2
4

> <PUBCHEM_MMFF94_PARTIAL_CHARGES>
43
1 -0.56
10 0.28
11 0.54
12 0.3
14 -0.05
15 -0.05
16 -0.01
17 -0.01
18 -0.15
2 -0.56
20 -0.15
22 -0.14
23 0.09
25 0.44
26 -0.15
27 0.54
28 -0.15
29 -0.15
3 -0.57
30 0.3
31 -0.15
32 0.57
33 0.28
34 -0.15
35 -0.15
36 -0.15
37 -0.15
38 0.06
4 -0.57
49 0.15
5 -0.04
50 0.15
51 0.15
55 0.15
56 0.37
6 -0.04
60 0.15
61 0.15
62 0.15
63 0.15
7 -0.66
8 -0.73
9 0.54

> <PUBCHEM_EFFECTIVE_ROTOR_COUNT>
4.2

> <PUBCHEM_PHARMACOPHORE_FEATURES>
15
1 1 acceptor
1 2 acceptor
1 3 acceptor
1 4 acceptor
1 5 cation
1 6 cation
1 8 donor
5 5 14 16 18 21 rings
5 6 15 17 20 24 rings
5 8 22 23 25 27 rings
6 1 9 10 11 12 13 rings
6 14 15 16 17 22 23 rings
6 18 21 26 29 34 35 rings
6 20 24 28 31 36 37 rings
7 1 5 6 9 11 14 15 rings

> <PUBCHEM_HEAVY_ATOM_COUNT>
38

> <PUBCHEM_ATOM_DEF_STEREO_COUNT>
4

> <PUBCHEM_ATOM_UDEF_STEREO_COUNT>
0

> <PUBCHEM_BOND_DEF_STEREO_COUNT>
0

> <PUBCHEM_BOND_UDEF_STEREO_COUNT>
0

> <PUBCHEM_ISOTOPIC_ATOM_COUNT>
0

> <PUBCHEM_COMPONENT_COUNT>
1

> <PUBCHEM_CACTVS_TAUTO_COUNT>
2

> <PUBCHEM_CONFORMER_ID>
02A4C5B700000001

> <PUBCHEM_MMFF94_ENERGY>
183.1207

> <PUBCHEM_FEATURE_SELFOVERLAP>
77.08

> <PUBCHEM_SHAPE_FINGERPRINT>
10675989 125 18408888442864508484
10693767 8 18202277026371595894
10930396 42 18052506011756630648
1100329 8 17835254715460677506
11135609 187 18338237179753882952
11227688 84 18193866840814823562
11445158 3 17392520909476594921
11513181 2 17981614762652069686
12608794 3 17617053291207239980
12788726 201 18263075522572413897
13140716 1 16901325239639703296
1361 2 18267017448019967421
13636023 51 14462789597488378893
13642711 20 18338508750472303534
13911987 19 18262251031033694348
14068700 675 18130784602779373441
14681490 219 18410008797863070725
15320467 1 18410295817304839711
15324884 4 17391634767607776953
15328829 1 17702967902100043131
15420108 30 17697340429405927905
15439362 3 17906730650615901877
15444296 8 17840030636951946767
15484559 13 18339913926264769639
15927050 60 17833842573453764164
19319366 153 17912070957369517239
19930381 70 18409449197720409011
20028762 73 18343866602696239766
20642791 105 16683717624684892928
20775438 99 17762290848811250557
21133410 171 17540767821589663083
23559900 14 18195521713241030425
238 59 17830976416774601991
24771293 8 18128813221924399904
24771750 20 17899708039868389397
266924 87 18337114449938651390
283562 15 18341057341707485184
3388396 114 18410578345128845734
3882209 13 17829580913096927586
4353968 344 18268996398080181638
463206 1 18410009978789673191
484989 97 17832147499485054291
57527452 28 15769227161895691717
6004065 56 18268421524247662365
70251023 43 18120937209359158043

> <PUBCHEM_SHAPE_MULTIPOLES>
738.62
9.62
6.93
1.39
5.87
2.09
-0.13
-3.92
5.43
-4.38
0.01
1.56
-0.01
-1.15

> <PUBCHEM_SHAPE_SELFOVERLAP>
1694.966

> <PUBCHEM_SHAPE_VOLUME>
380

> <PUBCHEM_COORDINATE_TYPE>
2
5
10

$$$$
