49830272
  -OEChem-10052120443D

 42 45  0     0  0  0  0  0  0999 V2000
    0.2593   -5.0567    0.3150 Cl  0  0  0  0  0  0  0  0  0  0  0  0
    6.0891    1.3282   -1.2882 O   0  0  0  0  0  0  0  0  0  0  0  0
    2.2734   -0.5934    0.6641 N   0  0  0  0  0  0  0  0  0  0  0  0
    0.0057   -0.6234    0.1695 N   0  0  0  0  0  0  0  0  0  0  0  0
    1.2449   -2.6662    0.4835 N   0  0  0  0  0  0  0  0  0  0  0  0
   -4.3002   -0.2071   -1.2044 N   0  0  0  0  0  0  0  0  0  0  0  0
   -4.7182    1.9886   -0.3056 N   0  0  0  0  0  0  0  0  0  0  0  0
    2.3173    0.8556    0.6412 C   0  0  0  0  0  0  0  0  0  0  0  0
    3.5170    1.3524    1.4527 C   0  0  0  0  0  0  0  0  0  0  0  0
    2.3499    1.3624   -0.8040 C   0  0  0  0  0  0  0  0  0  0  0  0
    4.8565    1.6737   -0.6652 C   0  0  0  0  0  0  0  0  0  0  0  0
    4.8502    1.1039    0.7505 C   0  0  0  0  0  0  0  0  0  0  0  0
    3.6940    1.1284   -1.4913 C   0  0  0  0  0  0  0  0  0  0  0  0
    1.1247   -1.3259    0.4296 C   0  0  0  0  0  0  0  0  0  0  0  0
   -1.0953   -1.3696   -0.0567 C   0  0  0  0  0  0  0  0  0  0  0  0
   -2.2985   -0.6391   -0.3340 C   0  0  0  0  0  0  0  0  0  0  0  0
   -2.7057    0.6487    0.1046 C   0  0  0  0  0  0  0  0  0  0  0  0
   -1.1051   -2.7493   -0.0304 C   0  0  0  0  0  0  0  0  0  0  0  0
    0.1059   -3.3498    0.2476 C   0  0  0  0  0  0  0  0  0  0  0  0
   -3.9573    0.8878   -0.4556 C   0  0  0  0  0  0  0  0  0  0  0  0
   -3.2994   -1.1414   -1.1373 C   0  0  0  0  0  0  0  0  0  0  0  0
   -2.1594    1.6539    0.9188 C   0  0  0  0  0  0  0  0  0  0  0  0
   -2.9057    2.8156    1.1080 C   0  0  0  0  0  0  0  0  0  0  0  0
   -4.1433    2.9226    0.4875 C   0  0  0  0  0  0  0  0  0  0  0  0
    1.4202    1.2502    1.1356 H   0  0  0  0  0  0  0  0  0  0  0  0
    3.4076    2.4315    1.6213 H   0  0  0  0  0  0  0  0  0  0  0  0
    3.5333    0.8787    2.4419 H   0  0  0  0  0  0  0  0  0  0  0  0
    1.5551    0.9106   -1.4079 H   0  0  0  0  0  0  0  0  0  0  0  0
    2.1530    2.4425   -0.7958 H   0  0  0  0  0  0  0  0  0  0  0  0
    4.8010    2.7679   -0.6190 H   0  0  0  0  0  0  0  0  0  0  0  0
    5.0751    0.0302    0.7213 H   0  0  0  0  0  0  0  0  0  0  0  0
    5.6648    1.5545    1.3309 H   0  0  0  0  0  0  0  0  0  0  0  0
    3.6921    1.5978   -2.4826 H   0  0  0  0  0  0  0  0  0  0  0  0
    3.8410    0.0561   -1.6748 H   0  0  0  0  0  0  0  0  0  0  0  0
    3.1258   -1.1185    0.8197 H   0  0  0  0  0  0  0  0  0  0  0  0
    6.0785    1.7020   -2.1858 H   0  0  0  0  0  0  0  0  0  0  0  0
   -1.9952   -3.3437   -0.1992 H   0  0  0  0  0  0  0  0  0  0  0  0
   -3.4016   -2.0706   -1.6819 H   0  0  0  0  0  0  0  0  0  0  0  0
   -5.1588   -0.3084   -1.7276 H   0  0  0  0  0  0  0  0  0  0  0  0
   -1.1915    1.5440    1.3964 H   0  0  0  0  0  0  0  0  0  0  0  0
   -2.5264    3.6199    1.7292 H   0  0  0  0  0  0  0  0  0  0  0  0
   -4.7387    3.8215    0.6243 H   0  0  0  0  0  0  0  0  0  0  0  0
  1 19  1  0  0  0  0
  2 11  1  0  0  0  0
  2 36  1  0  0  0  0
  3  8  1  0  0  0  0
  3 14  1  0  0  0  0
  3 35  1  0  0  0  0
  4 14  2  0  0  0  0
  4 15  1  0  0  0  0
  5 14  1  0  0  0  0
  5 19  2  0  0  0  0
  6 20  1  0  0  0  0
  6 21  1  0  0  0  0
  6 39  1  0  0  0  0
  7 20  1  0  0  0  0
  7 24  2  0  0  0  0
  8  9  1  0  0  0  0
  8 10  1  0  0  0  0
  8 25  1  0  0  0  0
  9 12  1  0  0  0  0
  9 26  1  0  0  0  0
  9 27  1  0  0  0  0
 10 13  1  0  0  0  0
 10 28  1  0  0  0  0
 10 29  1  0  0  0  0
 11 12  1  0  0  0  0
 11 13  1  0  0  0  0
 11 30  1  0  0  0  0
 12 31  1  0  0  0  0
 12 32  1  0  0  0  0
 13 33  1  0  0  0  0
 13 34  1  0  0  0  0
 15 16  1  0  0  0  0
 15 18  2  0  0  0  0
 16 17  1  0  0  0  0
 16 21  2  0  0  0  0
 17 20  2  0  0  0  0
 17 22  1  0  0  0  0
 18 19  1  0  0  0  0
 18 37  1  0  0  0  0
 21 38  1  0  0  0  0
 22 23  2  0  0  0  0
 22 40  1  0  0  0  0
 23 24  1  0  0  0  0
 23 41  1  0  0  0  0
 24 42  1  0  0  0  0
M  END
> <PUBCHEM_COMPOUND_CID>
49830272

> <PUBCHEM_CONFORMER_RMSD>
0.8

> <PUBCHEM_CONFORMER_DIVERSEORDER>
1
52
61
19
42
44
79
3
75
66
10
21
18
77
67
70
6
58
51
20
63
69
64
17
7
33
22
74
47
45
23
15
8
54
50
55
11
68
65
5
16
38
60
39
37
76
25
56
72
59
24
30
4
12
78
71
46
57
13
35
34
53
2
73
29
40
41
43
36
31
62
49
48
28
9
14
27
26
32

> <PUBCHEM_MMFF94_PARTIAL_CHARGES>
27
1 -0.18
11 0.28
14 0.72
15 0.36
16 -0.05
18 -0.15
19 0.49
2 -0.68
20 0.11
21 -0.3
22 -0.15
23 -0.15
24 0.16
3 -0.87
35 0.4
36 0.4
37 0.15
38 0.15
39 0.27
4 -0.62
40 0.15
41 0.15
42 0.15
5 -0.62
6 0.03
7 -0.57
8 0.37

> <PUBCHEM_EFFECTIVE_ROTOR_COUNT>
4.2

> <PUBCHEM_PHARMACOPHORE_FEATURES>
12
1 2 acceptor
1 2 donor
1 3 donor
1 5 acceptor
1 6 cation
1 6 donor
1 7 acceptor
4 3 4 5 14 cation
5 6 16 17 20 21 rings
6 4 5 14 15 18 19 rings
6 7 17 20 22 23 24 rings
6 8 9 10 11 12 13 rings

> <PUBCHEM_HEAVY_ATOM_COUNT>
24

> <PUBCHEM_ATOM_DEF_STEREO_COUNT>
0

> <PUBCHEM_ATOM_UDEF_STEREO_COUNT>
0

> <PUBCHEM_BOND_DEF_STEREO_COUNT>
0

> <PUBCHEM_BOND_UDEF_STEREO_COUNT>
0

> <PUBCHEM_ISOTOPIC_ATOM_COUNT>
0

> <PUBCHEM_COMPONENT_COUNT>
1

> <PUBCHEM_CACTVS_TAUTO_COUNT>
16

> <PUBCHEM_CONFORMER_ID>
02F8598000000001

> <PUBCHEM_MMFF94_ENERGY>
51.4294

> <PUBCHEM_FEATURE_SELFOVERLAP>
61.009

> <PUBCHEM_SHAPE_FINGERPRINT>
10382601 240 17822855264904107560
10411042 1 17329424459601259546
10498660 4 18272645740726970961
10670039 82 18410293618730522996
10937287 8 18410856538191391899
10940486 97 17626929895038438951
11370993 144 13912865532841174332
11582403 64 16267939257035595778
11725454 13 16843290615001791226
12107183 9 18261379050157659810
12173636 292 18339634641852897679
12390115 104 18342749515634435801
12633257 1 15357995485097138957
12788726 201 17827633970030342242
13140716 1 18338232639978576683
13540713 5 17985251990551026669
13828863 39 14275172309795925174
138480 1 17690840060289311747
14114211 68 18268165196520728185
14251757 17 16917080927453584876
14251757 5 18122071063740104566
14508225 48 17333644380717418943
14739800 52 18053640728914924568
14767858 380 18267564962541734559
14790565 3 18409169870665352036
14840074 17 17603312565509014468
14931854 50 18272362062569278765
15163728 17 18410586067073978606
15183329 4 18259989280439881292
15342168 16 18261393304589787933
15664445 248 17695639450389383734
17818456 19 18337935858360759714
20739085 24 18115022975194363852
20775438 99 16257255525602544047
21033650 10 17988651817405266392
2255824 54 18122341281413029259
23366157 5 18047466734342461163
235170 7 16558751243049171580
23557571 272 17838327841844016024
23559900 14 17271721672968735567
283562 15 18339921632142707107
3091708 16 9480638503443066995
38570 142 18127715749978333873
469060 322 18265351654092872849
474 4 18261954033902503819
5048184 11 18411983520636189225
5252454 2 18199753540080809633
5486654 2 18337951324512047023
6034566 193 18113913692279197837
6058803 2 17983562023941600807
7288768 16 18113341890677189115
84936 182 18271799064985601619
9981440 41 18409160017857518451

> <PUBCHEM_SHAPE_MULTIPOLES>
465
10.32
4.69
1.2
7
6.3
0.13
-11
2.65
-1.75
-1.11
0.69
-0.5
-1.42

> <PUBCHEM_SHAPE_SELFOVERLAP>
1012.013

> <PUBCHEM_SHAPE_VOLUME>
254.5

> <PUBCHEM_COORDINATE_TYPE>
2
5
10

$$$$
