24884503
  -OEChem-10052115143D

 62 66  0     0  0  0  0  0  0999 V2000
   -4.4833   -3.8983   -1.2274 F   0  0  0  0  0  0  0  0  0  0  0  0
   -6.2763   -4.9107   -0.5462 F   0  0  0  0  0  0  0  0  0  0  0  0
   -4.8145   -4.2035    0.9000 F   0  0  0  0  0  0  0  0  0  0  0  0
   -5.9241    1.9976    1.0447 O   0  0  0  0  0  0  0  0  0  0  0  0
    1.4075    1.6484   -0.0163 N   0  0  0  0  0  0  0  0  0  0  0  0
    1.0944    0.7359    0.9464 N   0  0  0  0  0  0  0  0  0  0  0  0
    8.8853   -2.5999    0.6074 N   0  0  0  0  0  0  0  0  0  0  0  0
    3.2557    2.2526   -1.4425 N   0  0  0  0  0  0  0  0  0  0  0  0
   -3.9776    1.0535    0.1238 N   0  0  0  0  0  0  0  0  0  0  0  0
    3.2192    0.3793    0.2110 C   0  0  0  0  0  0  0  0  0  0  0  0
    2.7118    1.4547   -0.4815 C   0  0  0  0  0  0  0  0  0  0  0  0
    4.5373   -0.1503    0.0320 C   0  0  0  0  0  0  0  0  0  0  0  0
    0.6005    2.6813   -0.5237 C   0  0  0  0  0  0  0  0  0  0  0  0
    7.1056   -1.1820   -0.3164 C   0  0  0  0  0  0  0  0  0  0  0  0
   -0.7802    2.8895   -0.0518 C   0  0  0  0  0  0  0  0  0  0  0  0
    8.4786   -1.7344   -0.5010 C   0  0  0  0  0  0  0  0  0  0  0  0
    2.1859   -0.0170    1.0678 C   0  0  0  0  0  0  0  0  0  0  0  0
    4.7080   -1.4754   -0.3687 C   0  0  0  0  0  0  0  0  0  0  0  0
    5.6506    0.6590    0.2585 C   0  0  0  0  0  0  0  0  0  0  0  0
    5.9923   -1.9912   -0.5428 C   0  0  0  0  0  0  0  0  0  0  0  0
    6.9348    0.1430    0.0845 C   0  0  0  0  0  0  0  0  0  0  0  0
    1.0980    3.4912   -1.4734 C   0  0  0  0  0  0  0  0  0  0  0  0
   -1.7252    1.8724   -0.1872 C   0  0  0  0  0  0  0  0  0  0  0  0
   -1.1420    4.1046    0.5299 C   0  0  0  0  0  0  0  0  0  0  0  0
   -3.0318    2.0705    0.2593 C   0  0  0  0  0  0  0  0  0  0  0  0
    2.4908    3.1977   -1.8936 C   0  0  0  0  0  0  0  0  0  0  0  0
   -2.4485    4.3027    0.9763 C   0  0  0  0  0  0  0  0  0  0  0  0
   -3.3933    3.2856    0.8411 C   0  0  0  0  0  0  0  0  0  0  0  0
    9.3332   -1.7964    1.7436 C   0  0  0  0  0  0  0  0  0  0  0  0
    9.9419   -3.5147    0.1785 C   0  0  0  0  0  0  0  0  0  0  0  0
   -5.3243    1.0712    0.5099 C   0  0  0  0  0  0  0  0  0  0  0  0
   -6.0906   -0.1656    0.2053 C   0  0  0  0  0  0  0  0  0  0  0  0
   -5.4315   -1.3918    0.1186 C   0  0  0  0  0  0  0  0  0  0  0  0
   -6.1515   -2.5519   -0.1667 C   0  0  0  0  0  0  0  0  0  0  0  0
   -7.4696   -0.0993    0.0063 C   0  0  0  0  0  0  0  0  0  0  0  0
   -7.5305   -2.4856   -0.3657 C   0  0  0  0  0  0  0  0  0  0  0  0
   -8.1896   -1.2594   -0.2792 C   0  0  0  0  0  0  0  0  0  0  0  0
   -5.4472   -3.8634   -0.2605 C   0  0  0  0  0  0  0  0  0  0  0  0
    9.2098   -0.9337   -0.6796 H   0  0  0  0  0  0  0  0  0  0  0  0
    8.4593   -2.3069   -1.4398 H   0  0  0  0  0  0  0  0  0  0  0  0
    2.1762   -0.8260    1.7848 H   0  0  0  0  0  0  0  0  0  0  0  0
    3.8521   -2.1208   -0.5521 H   0  0  0  0  0  0  0  0  0  0  0  0
    5.5403    1.6928    0.5777 H   0  0  0  0  0  0  0  0  0  0  0  0
    6.1119   -3.0253   -0.8555 H   0  0  0  0  0  0  0  0  0  0  0  0
    7.7934    0.7840    0.2666 H   0  0  0  0  0  0  0  0  0  0  0  0
    0.5667    4.3092   -1.9416 H   0  0  0  0  0  0  0  0  0  0  0  0
   -1.4500    0.9255   -0.6477 H   0  0  0  0  0  0  0  0  0  0  0  0
   -0.4190    4.9079    0.6503 H   0  0  0  0  0  0  0  0  0  0  0  0
    2.8886    3.8689   -2.6725 H   0  0  0  0  0  0  0  0  0  0  0  0
   -4.3821    3.5158    1.2112 H   0  0  0  0  0  0  0  0  0  0  0  0
   -2.7285    5.2488    1.4305 H   0  0  0  0  0  0  0  0  0  0  0  0
    8.5251   -1.1711    2.1366 H   0  0  0  0  0  0  0  0  0  0  0  0
   10.1817   -1.1502    1.4896 H   0  0  0  0  0  0  0  0  0  0  0  0
    9.6400   -2.4463    2.5714 H   0  0  0  0  0  0  0  0  0  0  0  0
   10.8343   -2.9817   -0.1694 H   0  0  0  0  0  0  0  0  0  0  0  0
   10.2350   -4.1773    1.0006 H   0  0  0  0  0  0  0  0  0  0  0  0
    9.5878   -4.1631   -0.6308 H   0  0  0  0  0  0  0  0  0  0  0  0
   -3.6259    0.2290   -0.3540 H   0  0  0  0  0  0  0  0  0  0  0  0
   -4.3655   -1.4882    0.3046 H   0  0  0  0  0  0  0  0  0  0  0  0
   -8.0018    0.8465    0.0641 H   0  0  0  0  0  0  0  0  0  0  0  0
   -8.1086   -3.3779   -0.5894 H   0  0  0  0  0  0  0  0  0  0  0  0
   -9.2631   -1.2075   -0.4355 H   0  0  0  0  0  0  0  0  0  0  0  0
  1 38  1  0  0  0  0
  2 38  1  0  0  0  0
  3 38  1  0  0  0  0
  4 31  2  0  0  0  0
  5  6  1  0  0  0  0
  5 11  1  0  0  0  0
  5 13  1  0  0  0  0
  6 17  2  0  0  0  0
  7 16  1  0  0  0  0
  7 29  1  0  0  0  0
  7 30  1  0  0  0  0
  8 11  1  0  0  0  0
  8 26  2  0  0  0  0
  9 25  1  0  0  0  0
  9 31  1  0  0  0  0
  9 58  1  0  0  0  0
 10 11  2  0  0  0  0
 10 12  1  0  0  0  0
 10 17  1  0  0  0  0
 12 18  2  0  0  0  0
 12 19  1  0  0  0  0
 13 15  1  0  0  0  0
 13 22  2  0  0  0  0
 14 16  1  0  0  0  0
 14 20  2  0  0  0  0
 14 21  1  0  0  0  0
 15 23  2  0  0  0  0
 15 24  1  0  0  0  0
 16 39  1  0  0  0  0
 16 40  1  0  0  0  0
 17 41  1  0  0  0  0
 18 20  1  0  0  0  0
 18 42  1  0  0  0  0
 19 21  2  0  0  0  0
 19 43  1  0  0  0  0
 20 44  1  0  0  0  0
 21 45  1  0  0  0  0
 22 26  1  0  0  0  0
 22 46  1  0  0  0  0
 23 25  1  0  0  0  0
 23 47  1  0  0  0  0
 24 27  2  0  0  0  0
 24 48  1  0  0  0  0
 25 28  2  0  0  0  0
 26 49  1  0  0  0  0
 27 28  1  0  0  0  0
 27 51  1  0  0  0  0
 28 50  1  0  0  0  0
 29 52  1  0  0  0  0
 29 53  1  0  0  0  0
 29 54  1  0  0  0  0
 30 55  1  0  0  0  0
 30 56  1  0  0  0  0
 30 57  1  0  0  0  0
 31 32  1  0  0  0  0
 32 33  2  0  0  0  0
 32 35  1  0  0  0  0
 33 34  1  0  0  0  0
 33 59  1  0  0  0  0
 34 36  2  0  0  0  0
 34 38  1  0  0  0  0
 35 37  2  0  0  0  0
 35 60  1  0  0  0  0
 36 37  1  0  0  0  0
 36 61  1  0  0  0  0
 37 62  1  0  0  0  0
M  END
> <PUBCHEM_COMPOUND_CID>
24884503

> <PUBCHEM_CONFORMER_RMSD>
1

> <PUBCHEM_CONFORMER_DIVERSEORDER>
3
93
23
69
78
74
51
13
71
84
76
39
45
47
46
82
63
91
50
27
33
25
88
75
86
81
57
58
8
68
62
44
1
60
55
90
20
87
92
10
6
72
80
77
37
85
79
65
42
48
24
26
67
22
18
83
36
38
59
66
54
2
73
4
5
41
56
40
52
7
35
89
49
34
16
70
31
53
43
64
11
30
17
19
21
15
9
29
32
28
14
61
12

> <PUBCHEM_MMFF94_PARTIAL_CHARGES>
54
1 -0.34
10 -0.05
11 -0.03
12 0.05
13 -0.06
14 -0.14
15 0.03
16 0.41
17 0.14
18 -0.15
19 -0.15
2 -0.34
20 -0.15
21 -0.15
22 -0.14
23 -0.15
24 -0.15
25 0.12
26 0.38
27 -0.15
28 -0.15
29 0.27
3 -0.34
30 0.27
31 0.54
32 0.09
33 -0.15
34 -0.14
35 -0.15
36 -0.15
37 -0.15
38 1.16
4 -0.57
41 0.15
42 0.15
43 0.15
44 0.15
45 0.15
46 0.15
47 0.15
48 0.15
49 0.06
5 0.6
50 0.15
51 0.15
58 0.37
59 0.15
6 -0.71
60 0.15
61 0.15
62 0.15
7 -0.81
8 -0.58
9 -0.55

> <PUBCHEM_EFFECTIVE_ROTOR_COUNT>
8

> <PUBCHEM_PHARMACOPHORE_FEATURES>
10
1 4 acceptor
1 6 acceptor
1 7 cation
1 8 acceptor
1 9 donor
5 5 6 10 11 17 rings
6 12 14 18 19 20 21 rings
6 15 23 24 25 27 28 rings
6 32 33 34 35 36 37 rings
6 5 8 11 13 22 26 rings

> <PUBCHEM_HEAVY_ATOM_COUNT>
38

> <PUBCHEM_ATOM_DEF_STEREO_COUNT>
0

> <PUBCHEM_ATOM_UDEF_STEREO_COUNT>
0

> <PUBCHEM_BOND_DEF_STEREO_COUNT>
0

> <PUBCHEM_BOND_UDEF_STEREO_COUNT>
0

> <PUBCHEM_ISOTOPIC_ATOM_COUNT>
0

> <PUBCHEM_COMPONENT_COUNT>
1

> <PUBCHEM_CACTVS_TAUTO_COUNT>
2

> <PUBCHEM_CONFORMER_ID>
017BB51700000003

> <PUBCHEM_MMFF94_ENERGY>
113.8939

> <PUBCHEM_FEATURE_SELFOVERLAP>
50.875

> <PUBCHEM_SHAPE_FINGERPRINT>
10100884 174 18409166619138161402
10258705 36 17983864377003147878
10622 236 18408602600112071997
11135609 99 18411699902291196876
11497681 19 18262799550276516288
11607047 403 17981318208240900624
117089 54 18266184010012720483
11963148 33 18188768319877119906
12013929 27 18041561463911889351
12522641 68 17320405810064221173
12758862 65 17417817300408299857
13690498 29 17967527957384871917
14068700 675 18408887330088814008
14178184 131 18130784599017689191
15064981 113 13551184464545332904
15264996 142 18262257568005847195
15538507 19 18341613676846794320
16126227 98 9223232944655490587
16989713 51 18261111807948674812
18608769 82 18341892961795943458
19303781 99 18114187453430756513
19841028 212 18334293201585650968
20028762 73 18410577283850033742
208703 8 18338793520263799463
20982279 24 17534068743341962787
21130935 74 18052816954630240546
21792965 215 18058435656463288778
22002106 203 18201146750325523463
25242607 90 18334853884450526472
32027 91 18198620124840716793
3504750 166 18336830779939253677
406291 66 18408604764152759108
44280117 145 18265335019864447988
44426695 248 15625931097366847788
44426701 97 18338226172354694840
45377200 153 18269848540913822990
4760202 70 18114191831163266668
5028188 123 18267596711267300364
54039377 194 18408325479635775997
57676310 51 18262800640571787915
5874358 3 17168969116271654920
6201460 15 17980477094682931815
6691757 9 18055638309525286033
7970288 3 18412263956678901741
9511036 111 18411139121243226114
9896288 288 17986678069379714745
9962374 69 18113340791862263340

> <PUBCHEM_SHAPE_MULTIPOLES>
729.43
29.7
6.36
1.13
31.77
1.85
0.1
41.18
-3.37
-8.1
0.68
0.93
-0.51
-3.39

> <PUBCHEM_SHAPE_SELFOVERLAP>
1612.783

> <PUBCHEM_SHAPE_VOLUME>
392.8

> <PUBCHEM_COORDINATE_TYPE>
2
5
10

$$$$
