9549300
  -OEChem-10062121553D

 43 46  0     0  0  0  0  0  0999 V2000
    2.5922   -3.2044   -2.7862 Cl  0  0  0  0  0  0  0  0  0  0  0  0
    2.2628   -5.2431   -0.6597 F   0  0  0  0  0  0  0  0  0  0  0  0
    1.9749   -0.0293    1.1931 N   0  0  0  0  0  0  0  0  0  0  0  0
   -2.6909    1.3981   -0.2853 N   0  0  0  0  0  0  0  0  0  0  0  0
   -1.2938    3.1809   -1.0139 N   0  0  0  0  0  0  0  0  0  0  0  0
    2.3098    3.6943   -0.7294 N   0  0  0  0  0  0  0  0  0  0  0  0
   -6.1210   -1.4152   -0.8590 N   0  0  0  0  0  0  0  0  0  0  0  0
    5.4935    0.7416    1.3275 N   0  0  0  0  0  0  0  0  0  0  0  0
    0.9378    1.8611    0.0306 C   0  0  0  0  0  0  0  0  0  0  0  0
    2.0778    1.2272    0.5431 C   0  0  0  0  0  0  0  0  0  0  0  0
    1.1043    3.1049   -0.6033 C   0  0  0  0  0  0  0  0  0  0  0  0
   -0.3376    1.2927    0.1351 C   0  0  0  0  0  0  0  0  0  0  0  0
   -1.4079    1.9876   -0.3986 C   0  0  0  0  0  0  0  0  0  0  0  0
    3.3238    1.8265    0.4179 C   0  0  0  0  0  0  0  0  0  0  0  0
   -2.9068    0.1380    0.3483 C   0  0  0  0  0  0  0  0  0  0  0  0
   -0.0454    3.6993   -1.0961 C   0  0  0  0  0  0  0  0  0  0  0  0
    2.0473   -1.3480    0.7197 C   0  0  0  0  0  0  0  0  0  0  0  0
    3.3847    3.0495   -0.2211 C   0  0  0  0  0  0  0  0  0  0  0  0
   -4.3545   -0.2730    0.3007 C   0  0  0  0  0  0  0  0  0  0  0  0
    2.2592   -1.5986   -0.6399 C   0  0  0  0  0  0  0  0  0  0  0  0
    1.9092   -2.4227    1.6042 C   0  0  0  0  0  0  0  0  0  0  0  0
   -5.2175    0.0907    1.3158 C   0  0  0  0  0  0  0  0  0  0  0  0
   -4.8339   -1.0147   -0.7548 C   0  0  0  0  0  0  0  0  0  0  0  0
    2.3321   -2.9099   -1.1100 C   0  0  0  0  0  0  0  0  0  0  0  0
    1.9821   -3.7338    1.1342 C   0  0  0  0  0  0  0  0  0  0  0  0
    2.1936   -3.9774   -0.2229 C   0  0  0  0  0  0  0  0  0  0  0  0
    4.5209    1.2279    0.9198 C   0  0  0  0  0  0  0  0  0  0  0  0
   -6.5493   -0.3026    1.2443 C   0  0  0  0  0  0  0  0  0  0  0  0
   -6.9473   -1.0477    0.1460 C   0  0  0  0  0  0  0  0  0  0  0  0
   -0.4594    0.3372    0.6306 H   0  0  0  0  0  0  0  0  0  0  0  0
    1.8086    0.0575    2.1915 H   0  0  0  0  0  0  0  0  0  0  0  0
   -2.5941    0.1696    1.4005 H   0  0  0  0  0  0  0  0  0  0  0  0
   -2.3169   -0.6521   -0.1354 H   0  0  0  0  0  0  0  0  0  0  0  0
   -3.4634    1.9222   -0.6805 H   0  0  0  0  0  0  0  0  0  0  0  0
    0.0028    4.6618   -1.5990 H   0  0  0  0  0  0  0  0  0  0  0  0
    4.3256    3.5760   -0.3551 H   0  0  0  0  0  0  0  0  0  0  0  0
    2.3685   -0.7755   -1.3426 H   0  0  0  0  0  0  0  0  0  0  0  0
    1.7440   -2.2483    2.6645 H   0  0  0  0  0  0  0  0  0  0  0  0
   -4.8757    0.6774    2.1633 H   0  0  0  0  0  0  0  0  0  0  0  0
   -4.1948   -1.3222   -1.5762 H   0  0  0  0  0  0  0  0  0  0  0  0
    1.8746   -4.5652    1.8245 H   0  0  0  0  0  0  0  0  0  0  0  0
   -7.2536   -0.0339    2.0231 H   0  0  0  0  0  0  0  0  0  0  0  0
   -7.9753   -1.3790    0.0429 H   0  0  0  0  0  0  0  0  0  0  0  0
  1 24  1  0  0  0  0
  2 26  1  0  0  0  0
  3 10  1  0  0  0  0
  3 17  1  0  0  0  0
  3 31  1  0  0  0  0
  4 13  1  0  0  0  0
  4 15  1  0  0  0  0
  4 34  1  0  0  0  0
  5 13  2  0  0  0  0
  5 16  1  0  0  0  0
  6 11  1  0  0  0  0
  6 18  2  0  0  0  0
  7 23  1  0  0  0  0
  7 29  2  0  0  0  0
  8 27  3  0  0  0  0
  9 10  1  0  0  0  0
  9 11  1  0  0  0  0
  9 12  2  0  0  0  0
 10 14  2  0  0  0  0
 11 16  2  0  0  0  0
 12 13  1  0  0  0  0
 12 30  1  0  0  0  0
 14 18  1  0  0  0  0
 14 27  1  0  0  0  0
 15 19  1  0  0  0  0
 15 32  1  0  0  0  0
 15 33  1  0  0  0  0
 16 35  1  0  0  0  0
 17 20  2  0  0  0  0
 17 21  1  0  0  0  0
 18 36  1  0  0  0  0
 19 22  1  0  0  0  0
 19 23  2  0  0  0  0
 20 24  1  0  0  0  0
 20 37  1  0  0  0  0
 21 25  2  0  0  0  0
 21 38  1  0  0  0  0
 22 28  2  0  0  0  0
 22 39  1  0  0  0  0
 23 40  1  0  0  0  0
 24 26  2  0  0  0  0
 25 26  1  0  0  0  0
 25 41  1  0  0  0  0
 28 29  1  0  0  0  0
 28 42  1  0  0  0  0
 29 43  1  0  0  0  0
M  END
> <PUBCHEM_COMPOUND_CID>
9549300

> <PUBCHEM_CONFORMER_RMSD>
0.8

> <PUBCHEM_CONFORMER_DIVERSEORDER>
1
68
315
296
308
71
179
164
123
117
6
300
120
94
184
176
302
242
53
307
59
167
35
243
285
180
158
106
268
103
272
10
60
311
119
237
97
198
241
288
111
67
192
3
65
314
273
195
275
261
95
181
310
226
13
282
56
48
19
256
134
186
270
2
83
276
81
79
274
229
109
203
230
116
17
21
234
239
63
104
108
47
220
247
279
228
66
232
152
246
137
89
224
271
87
153
295
209
36
73
199
27
171
281
105
155
7
188
98
244
51
154
124
4
11
92
118
64
147
38
70
93
44
149
298
121
102
80
185
200
207
201
24
170
191
157
72
96
144
254
39
287
260
69
236
74
257
286
31
43
187
82
173
262
136
292
215
30
197
161
133
40
208
166
107
140
146
5
194
99
309
130
114
252
29
253
189
227
221
100
235
25
148
76
115
278
90
160
301
8
168
291
263
138
240
159
211
219
145
84
135
112
216
131
91
172
129
28
210
297
32
183
178
289
162
193
293
12
126
182
78
127
223
61
139
250
113
202
75
304
238
204
190
174
62
258
125
52
23
150
249
169
58
206
101
45
225
88
128
42
156
22
245
222
16
175
110
15
143
165
264
37
141
294
284
218
26
259
163
33
266
34
142
269
54
290
151
212
132
20
280
214
267
306
86
217
233
85
283
196
77
57
248
255
122
205
177
18
277
14
50
312
313
265
55
41
231
251
46
305
9
303
49
213
299

> <PUBCHEM_MMFF94_PARTIAL_CHARGES>
40
1 -0.18
10 0.1
11 0.31
12 -0.15
13 0.41
14 0.07
15 0.51
16 0.16
17 0.1
18 0.16
19 -0.14
2 -0.19
20 -0.15
21 -0.15
22 -0.15
23 0.16
24 0.18
25 -0.15
26 0.19
27 0.48
28 -0.15
29 0.16
3 -0.6
30 0.15
31 0.4
34 0.4
35 0.15
36 0.15
37 0.15
38 0.15
39 0.15
4 -0.87
40 0.15
41 0.15
42 0.15
43 0.15
5 -0.62
6 -0.62
7 -0.62
8 -0.56

> <PUBCHEM_EFFECTIVE_ROTOR_COUNT>
5

> <PUBCHEM_PHARMACOPHORE_FEATURES>
11
1 3 cation
1 3 donor
1 4 donor
1 6 acceptor
1 7 acceptor
1 8 acceptor
3 4 5 13 cation
6 17 20 21 24 25 26 rings
6 5 9 11 12 13 16 rings
6 6 9 10 11 14 18 rings
6 7 19 22 23 28 29 rings

> <PUBCHEM_HEAVY_ATOM_COUNT>
29

> <PUBCHEM_ATOM_DEF_STEREO_COUNT>
0

> <PUBCHEM_ATOM_UDEF_STEREO_COUNT>
0

> <PUBCHEM_BOND_DEF_STEREO_COUNT>
0

> <PUBCHEM_BOND_UDEF_STEREO_COUNT>
0

> <PUBCHEM_ISOTOPIC_ATOM_COUNT>
0

> <PUBCHEM_COMPONENT_COUNT>
1

> <PUBCHEM_CACTVS_TAUTO_COUNT>
6

> <PUBCHEM_CONFORMER_ID>
0091B5F400000001

> <PUBCHEM_MMFF94_ENERGY>
104.9744

> <PUBCHEM_FEATURE_SELFOVERLAP>
55.854

> <PUBCHEM_SHAPE_FINGERPRINT>
10928967 22 18119821218432828523
11421498 54 17988929971992781056
114674 6 18261117369830894843
11578080 2 15871659530199536660
12107183 9 17982747277272635537
12147406 95 18266172846986010863
13150687 139 17825412892882558380
13533116 47 18272934943098413907
1361 2 18410575128320199067
13785724 45 18194977253517099747
14251757 5 17184757887886560406
14863182 85 18335707186476633548
14910700 183 18266163114985938960
15250474 111 18198898305377019127
15484559 13 18263931118770206276
15664445 248 18261691336196459268
16728300 4 17461968070095084432
17138139 8 17339263929323499847
19301679 30 18408610254186853561
1979834 28 18411417349383241921
20028762 73 18341611576855121508
20511986 3 17987509472485638301
20771845 140 17988639743935666570
20775438 99 17542745795446225565
20775530 9 18267585698037151343
21197605 99 17975140043671554795
21344244 181 18268452268441323364
22224240 67 18271518823018329112
22956985 138 18118392944370106458
255183 313 17982415413718041616
3737641 26 18342178812890602473
394071 54 18410019849278153779
463206 1 18194679491718343569
5309563 4 18409164372796067852
57359948 33 17385716968636491679

> <PUBCHEM_SHAPE_MULTIPOLES>
561.52
12.45
6.07
1.56
27.62
3.36
-0.5
3.65
3.02
-8.24
-2.41
-0.95
1.19
0.93

> <PUBCHEM_SHAPE_SELFOVERLAP>
1233.392

> <PUBCHEM_SHAPE_VOLUME>
304.2

> <PUBCHEM_COORDINATE_TYPE>
2
5
10

$$$$
