49830840
  -OEChem-10062121533D

 37 39  0     0  0  0  0  0  0999 V2000
    1.7441   -1.3700    0.0094 N   0  0  0  0  0  0  0  0  0  0  0  0
   -0.4218   -0.3811    0.0108 N   0  0  0  0  0  0  0  0  0  0  0  0
   -2.3804   -1.7842    0.0613 N   0  0  0  0  0  0  0  0  0  0  0  0
    2.0423    0.9822   -0.0420 N   0  0  0  0  0  0  0  0  0  0  0  0
    0.3338   -1.4988    0.0251 C   0  0  0  0  0  0  0  0  0  0  0  0
   -1.7514   -0.5939    0.0301 C   0  0  0  0  0  0  0  0  0  0  0  0
   -2.5935    0.5826    0.0142 C   0  0  0  0  0  0  0  0  0  0  0  0
   -1.5647   -2.8590    0.0741 C   0  0  0  0  0  0  0  0  0  0  0  0
    2.5937   -0.2520   -0.0216 C   0  0  0  0  0  0  0  0  0  0  0  0
   -0.1873   -2.7763    0.0571 C   0  0  0  0  0  0  0  0  0  0  0  0
    4.8121    0.6050   -0.0584 C   0  0  0  0  0  0  0  0  0  0  0  0
    3.9583   -0.4922   -0.0284 C   0  0  0  0  0  0  0  0  0  0  0  0
   -3.8561    0.5283   -0.5759 C   0  0  0  0  0  0  0  0  0  0  0  0
   -2.1428    1.7708    0.5891 C   0  0  0  0  0  0  0  0  0  0  0  0
   -2.2209   -4.1983    0.1078 C   0  0  0  0  0  0  0  0  0  0  0  0
    4.2825    1.8906   -0.0802 C   0  0  0  0  0  0  0  0  0  0  0  0
    6.2893    0.4045   -0.0676 C   0  0  0  0  0  0  0  0  0  0  0  0
   -4.6682    1.6624   -0.5913 C   0  0  0  0  0  0  0  0  0  0  0  0
   -2.9547    2.9049    0.5739 C   0  0  0  0  0  0  0  0  0  0  0  0
    2.9033    2.0241   -0.0710 C   0  0  0  0  0  0  0  0  0  0  0  0
   -4.2174    2.8506   -0.0164 C   0  0  0  0  0  0  0  0  0  0  0  0
    0.4373   -3.6616    0.0689 H   0  0  0  0  0  0  0  0  0  0  0  0
    2.2299   -2.2594   -0.0687 H   0  0  0  0  0  0  0  0  0  0  0  0
    4.3571   -1.5021   -0.0090 H   0  0  0  0  0  0  0  0  0  0  0  0
   -4.2320   -0.3799   -1.0407 H   0  0  0  0  0  0  0  0  0  0  0  0
   -1.1677    1.8425    1.0649 H   0  0  0  0  0  0  0  0  0  0  0  0
   -1.9422   -4.7813   -0.7757 H   0  0  0  0  0  0  0  0  0  0  0  0
   -3.3116   -4.1018    0.1181 H   0  0  0  0  0  0  0  0  0  0  0  0
   -1.9223   -4.7462    1.0072 H   0  0  0  0  0  0  0  0  0  0  0  0
    4.9188    2.7687   -0.1022 H   0  0  0  0  0  0  0  0  0  0  0  0
    6.6640    0.3239    0.9576 H   0  0  0  0  0  0  0  0  0  0  0  0
    6.5593   -0.5057   -0.6138 H   0  0  0  0  0  0  0  0  0  0  0  0
    6.8000    1.2379   -0.5619 H   0  0  0  0  0  0  0  0  0  0  0  0
   -5.6506    1.6211   -1.0526 H   0  0  0  0  0  0  0  0  0  0  0  0
   -2.6049    3.8297    1.0232 H   0  0  0  0  0  0  0  0  0  0  0  0
    2.4399    3.0050   -0.0866 H   0  0  0  0  0  0  0  0  0  0  0  0
   -4.8496    3.7337   -0.0284 H   0  0  0  0  0  0  0  0  0  0  0  0
  1  5  1  0  0  0  0
  1  9  1  0  0  0  0
  1 23  1  0  0  0  0
  2  5  2  0  0  0  0
  2  6  1  0  0  0  0
  3  6  2  0  0  0  0
  3  8  1  0  0  0  0
  4  9  2  0  0  0  0
  4 20  1  0  0  0  0
  5 10  1  0  0  0  0
  6  7  1  0  0  0  0
  7 13  2  0  0  0  0
  7 14  1  0  0  0  0
  8 10  2  0  0  0  0
  8 15  1  0  0  0  0
  9 12  1  0  0  0  0
 10 22  1  0  0  0  0
 11 12  2  0  0  0  0
 11 16  1  0  0  0  0
 11 17  1  0  0  0  0
 12 24  1  0  0  0  0
 13 18  1  0  0  0  0
 13 25  1  0  0  0  0
 14 19  2  0  0  0  0
 14 26  1  0  0  0  0
 15 27  1  0  0  0  0
 15 28  1  0  0  0  0
 15 29  1  0  0  0  0
 16 20  2  0  0  0  0
 16 30  1  0  0  0  0
 17 31  1  0  0  0  0
 17 32  1  0  0  0  0
 17 33  1  0  0  0  0
 18 21  2  0  0  0  0
 18 34  1  0  0  0  0
 19 21  1  0  0  0  0
 19 35  1  0  0  0  0
 20 36  1  0  0  0  0
 21 37  1  0  0  0  0
M  END
> <PUBCHEM_COMPOUND_CID>
49830840

> <PUBCHEM_CONFORMER_RMSD>
0.6

> <PUBCHEM_CONFORMER_DIVERSEORDER>
1
41
24
57
34
47
4
16
49
54
35
17
3
48
15
43
36
42
33
32
51
9
61
58
5
23
18
10
45
25
39
52
38
56
20
46
19
31
6
14
62
60
50
13
12
63
11
55
44
27
7
59
26
8
53
30
2
21
40
22
28
29
37

> <PUBCHEM_MMFF94_PARTIAL_CHARGES>
30
1 -0.6
10 -0.15
11 -0.14
12 -0.15
13 -0.15
14 -0.15
15 0.14
16 -0.15
17 0.14
18 -0.15
19 -0.15
2 -0.62
20 0.16
21 -0.15
22 0.15
23 0.4
24 0.15
25 0.15
26 0.15
3 -0.62
30 0.15
34 0.15
35 0.15
36 0.15
37 0.15
4 -0.62
5 0.41
6 0.62
8 0.17
9 0.41

> <PUBCHEM_EFFECTIVE_ROTOR_COUNT>
3

> <PUBCHEM_PHARMACOPHORE_FEATURES>
7
1 1 donor
3 1 2 5 cation
3 1 4 9 cation
3 2 3 6 cation
6 2 3 5 6 8 10 rings
6 4 9 11 12 16 20 rings
6 7 13 14 18 19 21 rings

> <PUBCHEM_HEAVY_ATOM_COUNT>
21

> <PUBCHEM_ATOM_DEF_STEREO_COUNT>
0

> <PUBCHEM_ATOM_UDEF_STEREO_COUNT>
0

> <PUBCHEM_BOND_DEF_STEREO_COUNT>
0

> <PUBCHEM_BOND_UDEF_STEREO_COUNT>
0

> <PUBCHEM_ISOTOPIC_ATOM_COUNT>
0

> <PUBCHEM_COMPONENT_COUNT>
1

> <PUBCHEM_CACTVS_TAUTO_COUNT>
4

> <PUBCHEM_CONFORMER_ID>
02F85BB800000001

> <PUBCHEM_MMFF94_ENERGY>
69.3183

> <PUBCHEM_FEATURE_SELFOVERLAP>
36.056

> <PUBCHEM_SHAPE_FINGERPRINT>
10411042 1 17834114530298475027
11045515 52 17835238231213385955
11370993 70 18411134697532828549
12107183 9 18190732052039236418
12173636 292 18411415154575780223
12293681 160 17917425355294906433
12390115 104 18270415905502144297
12403259 226 17912081960685274530
12769317 202 18122893240603142885
12788726 201 18117548742097941411
13583140 156 17312822680092677273
13590594 115 17905332076663650811
138480 1 17329710916660158555
14123255 52 18337954493585422921
14508225 48 17766829899352058303
14767858 380 18269536331129446165
14931854 50 18200870669543068917
15042514 8 18192719062539357851
15196674 1 18339080393476655652
17834072 32 18410576149820256072
20510252 161 18268152139582862675
21065198 57 18338797918336690710
21279426 13 18270128912014821430
21307412 95 17914359913241199798
21426921 1 18338517572356682326
21524375 3 18188210896971023699
22182937 141 18411987974421855489
2255824 54 17835799699619153467
2306618 200 18129394850094148314
23227448 37 18411982494064691421
23557571 272 18270124641952276198
23558518 356 18188213216338220794
23559900 14 18272091578951578014
23845131 108 18191033309671800363
283562 15 18117554252419701451
3091708 16 9125131214564601603
335352 9 18338234861157020806
350125 39 18337960090012127859
394222 165 18044652006071115387
4214541 1 18337672018345471550
474 4 18194398892878207089
5048184 11 18410012108982402728
5486654 2 18412258446488990751
59755656 520 18335134271877176302
6327066 14 18334853879353887877
6328613 192 18334583464930820692
633830 44 18055914290989495485
7164475 11 18121503724298399982
77188 2 17617661403026673783
7808743 9 18409447011898748416
84936 182 18055065463533502513
9709674 26 18271813444894941070
9981440 41 18336547110491691979

> <PUBCHEM_SHAPE_MULTIPOLES>
412.25
10.93
4.21
0.67
11.94
3.14
0
-8.19
0.98
-5.05
-0.37
-0.23
-0.12
-0.06

> <PUBCHEM_SHAPE_SELFOVERLAP>
898.233

> <PUBCHEM_SHAPE_VOLUME>
221

> <PUBCHEM_COORDINATE_TYPE>
2
5
10

$$$$
