10390073
  -OEChem-10052120443D

 63 67  0     1  0  0  0  0  0999 V2000
   -2.3312   -1.8219    0.6071 S   0  0  0  0  0  0  0  0  0  0  0  0
    1.1331    5.3595   -0.2908 F   0  0  0  0  0  0  0  0  0  0  0  0
   -7.7729   -0.5688   -0.5944 N   0  0  0  0  0  0  0  0  0  0  0  0
   -3.0796    0.5718   -0.0201 N   0  0  0  0  0  0  0  0  0  0  0  0
    3.2653   -2.0685   -0.8491 N   0  0  0  0  0  0  0  0  0  0  0  0
    2.8841   -1.5941    1.4543 N   0  0  0  0  0  0  0  0  0  0  0  0
   -4.9531   -1.0926    0.0023 C   0  0  0  0  0  0  0  0  0  0  0  0
   -5.4659   -0.8936   -1.4315 C   0  0  0  0  0  0  0  0  0  0  0  0
   -5.8862   -0.3883    0.9984 C   0  0  0  0  0  0  0  0  0  0  0  0
   -6.9359   -1.3038   -1.5529 C   0  0  0  0  0  0  0  0  0  0  0  0
   -7.3409   -0.8167    0.7881 C   0  0  0  0  0  0  0  0  0  0  0  0
   -3.5058   -0.6558    0.1616 C   0  0  0  0  0  0  0  0  0  0  0  0
   -9.1803   -0.9304   -0.7626 C   0  0  0  0  0  0  0  0  0  0  0  0
   -1.1347   -0.5941    0.5569 C   0  0  0  0  0  0  0  0  0  0  0  0
   -1.7178    0.6060    0.2077 C   0  0  0  0  0  0  0  0  0  0  0  0
    0.2346   -0.9350    0.8620 C   0  0  0  0  0  0  0  0  0  0  0  0
   -0.9817    1.8332    0.0790 C   0  0  0  0  0  0  0  0  0  0  0  0
    1.0946   -1.3410   -0.1513 C   0  0  0  0  0  0  0  0  0  0  0  0
    0.6957   -0.8577    2.1708 C   0  0  0  0  0  0  0  0  0  0  0  0
    2.3987   -1.6568    0.1941 C   0  0  0  0  0  0  0  0  0  0  0  0
   -0.4249    2.1857   -1.1497 C   0  0  0  0  0  0  0  0  0  0  0  0
   -0.8250    2.6704    1.1829 C   0  0  0  0  0  0  0  0  0  0  0  0
    4.6296   -2.4186   -0.6235 C   0  0  2  0  0  0  0  0  0  0  0  0
    2.0177   -1.1953    2.4123 C   0  0  0  0  0  0  0  0  0  0  0  0
    5.4735   -1.1701   -0.4822 C   0  0  0  0  0  0  0  0  0  0  0  0
    0.2897    3.3771   -1.2748 C   0  0  0  0  0  0  0  0  0  0  0  0
   -0.1104    3.8618    1.0579 C   0  0  0  0  0  0  0  0  0  0  0  0
    5.1100   -3.3392   -1.7434 C   0  0  0  0  0  0  0  0  0  0  0  0
    0.4471    4.2151   -0.1708 C   0  0  0  0  0  0  0  0  0  0  0  0
    6.5697   -1.1880    0.3625 C   0  0  0  0  0  0  0  0  0  0  0  0
    5.1304   -0.0379   -1.2004 C   0  0  0  0  0  0  0  0  0  0  0  0
    7.3475   -0.0375    0.4929 C   0  0  0  0  0  0  0  0  0  0  0  0
    5.9082    1.1126   -1.0700 C   0  0  0  0  0  0  0  0  0  0  0  0
    7.0167    1.1128   -0.2233 C   0  0  0  0  0  0  0  0  0  0  0  0
   -5.0150   -2.1701    0.2157 H   0  0  0  0  0  0  0  0  0  0  0  0
   -4.8626   -1.4836   -2.1326 H   0  0  0  0  0  0  0  0  0  0  0  0
   -5.3537    0.1573   -1.7306 H   0  0  0  0  0  0  0  0  0  0  0  0
   -5.8059    0.7012    0.8857 H   0  0  0  0  0  0  0  0  0  0  0  0
   -5.5821   -0.6189    2.0269 H   0  0  0  0  0  0  0  0  0  0  0  0
   -7.2658   -1.0864   -2.5761 H   0  0  0  0  0  0  0  0  0  0  0  0
   -7.0297   -2.3877   -1.4041 H   0  0  0  0  0  0  0  0  0  0  0  0
   -7.4544   -1.8771    1.0497 H   0  0  0  0  0  0  0  0  0  0  0  0
   -7.9677   -0.2421    1.4810 H   0  0  0  0  0  0  0  0  0  0  0  0
   -9.5181   -0.6998   -1.7791 H   0  0  0  0  0  0  0  0  0  0  0  0
   -9.8115   -0.3469   -0.0832 H   0  0  0  0  0  0  0  0  0  0  0  0
   -9.3602   -1.9947   -0.5722 H   0  0  0  0  0  0  0  0  0  0  0  0
    0.7545   -1.4072   -1.1811 H   0  0  0  0  0  0  0  0  0  0  0  0
    0.0546   -0.5436    2.9881 H   0  0  0  0  0  0  0  0  0  0  0  0
   -0.5384    1.5433   -2.0199 H   0  0  0  0  0  0  0  0  0  0  0  0
   -1.2534    2.4094    2.1478 H   0  0  0  0  0  0  0  0  0  0  0  0
    4.7022   -3.0027    0.3044 H   0  0  0  0  0  0  0  0  0  0  0  0
    2.9488   -1.8998   -1.7986 H   0  0  0  0  0  0  0  0  0  0  0  0
    2.4278   -1.1512    3.4158 H   0  0  0  0  0  0  0  0  0  0  0  0
    0.7241    3.6525   -2.2313 H   0  0  0  0  0  0  0  0  0  0  0  0
    0.0123    4.5145    1.9172 H   0  0  0  0  0  0  0  0  0  0  0  0
    6.1455   -3.6554   -1.5764 H   0  0  0  0  0  0  0  0  0  0  0  0
    4.4860   -4.2377   -1.8053 H   0  0  0  0  0  0  0  0  0  0  0  0
    5.0691   -2.8403   -2.7189 H   0  0  0  0  0  0  0  0  0  0  0  0
    6.8363   -2.0792    0.9229 H   0  0  0  0  0  0  0  0  0  0  0  0
    4.2876   -0.0096   -1.8840 H   0  0  0  0  0  0  0  0  0  0  0  0
    8.2110   -0.0375    1.1516 H   0  0  0  0  0  0  0  0  0  0  0  0
    5.6537    2.0071   -1.6311 H   0  0  0  0  0  0  0  0  0  0  0  0
    7.6230    2.0083   -0.1228 H   0  0  0  0  0  0  0  0  0  0  0  0
  1 12  1  0  0  0  0
  1 14  1  0  0  0  0
  2 29  1  0  0  0  0
  3 10  1  0  0  0  0
  3 11  1  0  0  0  0
  3 13  1  0  0  0  0
  4 12  2  0  0  0  0
  4 15  1  0  0  0  0
  5 20  1  0  0  0  0
  5 23  1  0  0  0  0
  5 52  1  0  0  0  0
  6 20  2  0  0  0  0
  6 24  1  0  0  0  0
  7  8  1  0  0  0  0
  7  9  1  0  0  0  0
  7 12  1  0  0  0  0
  7 35  1  0  0  0  0
  8 10  1  0  0  0  0
  8 36  1  0  0  0  0
  8 37  1  0  0  0  0
  9 11  1  0  0  0  0
  9 38  1  0  0  0  0
  9 39  1  0  0  0  0
 10 40  1  0  0  0  0
 10 41  1  0  0  0  0
 11 42  1  0  0  0  0
 11 43  1  0  0  0  0
 13 44  1  0  0  0  0
 13 45  1  0  0  0  0
 13 46  1  0  0  0  0
 14 15  2  0  0  0  0
 14 16  1  0  0  0  0
 15 17  1  0  0  0  0
 16 18  2  0  0  0  0
 16 19  1  0  0  0  0
 17 21  2  0  0  0  0
 17 22  1  0  0  0  0
 18 20  1  0  0  0  0
 18 47  1  0  0  0  0
 19 24  2  0  0  0  0
 19 48  1  0  0  0  0
 21 26  1  0  0  0  0
 21 49  1  0  0  0  0
 22 27  2  0  0  0  0
 22 50  1  0  0  0  0
 23 25  1  0  0  0  0
 23 28  1  0  0  0  0
 23 51  1  0  0  0  0
 24 53  1  0  0  0  0
 25 30  2  0  0  0  0
 25 31  1  0  0  0  0
 26 29  2  0  0  0  0
 26 54  1  0  0  0  0
 27 29  1  0  0  0  0
 27 55  1  0  0  0  0
 28 56  1  0  0  0  0
 28 57  1  0  0  0  0
 28 58  1  0  0  0  0
 30 32  1  0  0  0  0
 30 59  1  0  0  0  0
 31 33  2  0  0  0  0
 31 60  1  0  0  0  0
 32 34  2  0  0  0  0
 32 61  1  0  0  0  0
 33 34  1  0  0  0  0
 33 62  1  0  0  0  0
 34 63  1  0  0  0  0
M  END
> <PUBCHEM_COMPOUND_CID>
10390073

> <PUBCHEM_CONFORMER_RMSD>
1

> <PUBCHEM_CONFORMER_DIVERSEORDER>
1
223
148
185
65
204
222
202
44
150
200
250
255
245
69
210
236
199
38
95
31
195
11
234
103
84
242
55
154
50
113
61
76
66
15
198
117
160
78
64
14
81
30
79
110
251
235
52
231
92
172
146
35
17
219
90
125
224
51
4
74
197
91
220
149
56
203
225
208
32
131
126
184
3
153
112
182
177
93
105
158
124
168
62
214
173
232
59
215
249
134
87
57
68
75
156
80
213
240
22
179
193
207
6
111
244
41
180
201
217
186
39
33
127
139
94
118
151
83
25
27
243
23
70
107
254
9
188
100
88
26
5
73
183
209
89
58
226
216
101
246
181
96
227
218
253
176
138
178
141
211
130
140
165
97
191
28
142
147
256
212
20
259
258
241
108
129
152
143
29
109
248
86
233
104
128
121
123
82
171
169
114
163
115
196
229
228
106
7
133
49
77
12
36
206
257
239
137
170
16
119
34
192
47
230
174
63
162
46
252
190
136
122
85
13
221
159
37
155
132
24
43
166
205
164
194
10
157
120
161
8
247
135
54
60
102
72
67
98
238
187
167
48
145
144
18
99
2
40
116
175
42
21
53
189
19
45
71
237

> <PUBCHEM_MMFF94_PARTIAL_CHARGES>
44
1 -0.08
10 0.27
11 0.27
12 0.2
13 0.27
14 -0.01
15 0.17
16 0.05
17 0.05
18 -0.15
19 -0.15
2 -0.19
20 0.41
21 -0.15
22 -0.15
23 0.51
24 0.16
25 -0.14
26 -0.15
27 -0.15
29 0.19
3 -0.81
30 -0.15
31 -0.15
32 -0.15
33 -0.15
34 -0.15
4 -0.57
47 0.15
48 0.15
49 0.15
5 -0.87
50 0.15
52 0.4
53 0.15
54 0.15
55 0.15
59 0.15
6 -0.62
60 0.15
61 0.15
62 0.15
63 0.15
7 0.18

> <PUBCHEM_EFFECTIVE_ROTOR_COUNT>
7.2

> <PUBCHEM_PHARMACOPHORE_FEATURES>
9
1 3 cation
1 4 acceptor
1 5 donor
3 5 6 20 cation
5 1 4 12 14 15 rings
6 17 21 22 26 27 29 rings
6 25 30 31 32 33 34 rings
6 3 7 8 9 10 11 rings
6 6 16 18 19 20 24 rings

> <PUBCHEM_HEAVY_ATOM_COUNT>
34

> <PUBCHEM_ATOM_DEF_STEREO_COUNT>
1

> <PUBCHEM_ATOM_UDEF_STEREO_COUNT>
0

> <PUBCHEM_BOND_DEF_STEREO_COUNT>
0

> <PUBCHEM_BOND_UDEF_STEREO_COUNT>
0

> <PUBCHEM_ISOTOPIC_ATOM_COUNT>
0

> <PUBCHEM_COMPONENT_COUNT>
1

> <PUBCHEM_CACTVS_TAUTO_COUNT>
2

> <PUBCHEM_CONFORMER_ID>
009E8A3900000001

> <PUBCHEM_MMFF94_ENERGY>
89.6648

> <PUBCHEM_FEATURE_SELFOVERLAP>
45.673

> <PUBCHEM_SHAPE_FINGERPRINT>
10940486 97 17916579981324720823
11062273 29 18042962275442109213
11828532 37 18041005106580169666
12516196 113 18411420600815980783
12522641 24 17274818112107645976
12633046 712 16986309362288060474
12788726 201 18188485757571693411
12838863 1 18187639186133495298
13560911 43 17749105604862057052
13617811 41 18411695478691302394
13782708 43 17702662133855161726
14068700 675 18060420218420919473
14347332 77 18122063109329570122
14400156 266 18130239176889242237
14415361 192 17313365830648414108
14725015 67 18261104193620609048
14918310 93 18114730655589677228
15198563 99 18265618684636170309
15320295 40 17531236250446639920
15357212 105 10230311967317726778
15439362 3 18120935276729642413
15961568 22 18408893941082199676
15979999 66 18409443718070718061
16992787 43 18335704995848419452
16994733 274 14779259783670255615
1813 80 18340477899152922147
19319366 153 17531237349035992771
21049683 271 18113899390444088885
21403212 168 9007064551845250485
21781055 127 8645934467387060890
23522609 53 17559702605566634515
23559900 14 18338514257285352411
24771750 20 17829344818528051189
25019877 29 17346883338339317494
3534868 343 18262810553666737798
5219985 9 18342172254865736969
563151 248 10809345567833088185
6004065 56 18339364170450329175
9962374 69 18270395118610063655

> <PUBCHEM_SHAPE_MULTIPOLES>
676.36
20.85
4.37
1.62
18.91
7.13
-0.37
-13.21
6.85
-3.5
0.78
-0.23
-0.46
-0.16

> <PUBCHEM_SHAPE_SELFOVERLAP>
1460.775

> <PUBCHEM_SHAPE_VOLUME>
376.9

> <PUBCHEM_COORDINATE_TYPE>
2
5
10

$$$$
