10448840
  -OEChem-10062122043D

 34 37  0     0  0  0  0  0  0999 V2000
   -1.4263    4.6001    0.2550 Cl  0  0  0  0  0  0  0  0  0  0  0  0
    2.5953    1.8747   -0.7630 O   0  0  0  0  0  0  0  0  0  0  0  0
   -1.3588   -1.2373    0.0418 N   0  0  0  0  0  0  0  0  0  0  0  0
    1.2685    0.2469    0.2484 N   0  0  0  0  0  0  0  0  0  0  0  0
   -4.6929   -2.7948   -0.2104 N   0  0  0  0  0  0  0  0  0  0  0  0
    5.8058   -1.8256    0.1891 N   0  0  0  0  0  0  0  0  0  0  0  0
   -1.1670    0.1232    0.1035 C   0  0  0  0  0  0  0  0  0  0  0  0
   -2.4270    0.7211    0.0522 C   0  0  0  0  0  0  0  0  0  0  0  0
   -3.3943   -0.3290   -0.0436 C   0  0  0  0  0  0  0  0  0  0  0  0
   -2.6965   -1.5363   -0.0473 C   0  0  0  0  0  0  0  0  0  0  0  0
    0.0179    0.8619    0.2001 C   0  0  0  0  0  0  0  0  0  0  0  0
   -2.5080    2.1286    0.1003 C   0  0  0  0  0  0  0  0  0  0  0  0
   -0.0887    2.2545    0.2458 C   0  0  0  0  0  0  0  0  0  0  0  0
   -4.7950   -0.3666   -0.1271 C   0  0  0  0  0  0  0  0  0  0  0  0
   -1.3318    2.8806    0.1971 C   0  0  0  0  0  0  0  0  0  0  0  0
   -3.3426   -2.7629   -0.1302 C   0  0  0  0  0  0  0  0  0  0  0  0
   -5.3732   -1.6264   -0.2075 C   0  0  0  0  0  0  0  0  0  0  0  0
    2.4720    0.7756   -0.2274 C   0  0  0  0  0  0  0  0  0  0  0  0
    3.6285   -0.1266   -0.0827 C   0  0  0  0  0  0  0  0  0  0  0  0
    4.6910   -0.0123   -0.9568 C   0  0  0  0  0  0  0  0  0  0  0  0
    3.6298   -1.0710    0.9243 C   0  0  0  0  0  0  0  0  0  0  0  0
    5.7536   -0.8835   -0.7791 C   0  0  0  0  0  0  0  0  0  0  0  0
    4.7399   -1.8950    1.0175 C   0  0  0  0  0  0  0  0  0  0  0  0
   -0.6178   -1.9243    0.0588 H   0  0  0  0  0  0  0  0  0  0  0  0
   -3.4780    2.6176    0.0619 H   0  0  0  0  0  0  0  0  0  0  0  0
    0.7927    2.8797    0.3625 H   0  0  0  0  0  0  0  0  0  0  0  0
   -5.3997    0.5329   -0.1293 H   0  0  0  0  0  0  0  0  0  0  0  0
   -2.8231   -3.7121   -0.1347 H   0  0  0  0  0  0  0  0  0  0  0  0
    1.2372   -0.7503    0.4429 H   0  0  0  0  0  0  0  0  0  0  0  0
   -6.4522   -1.7284   -0.2744 H   0  0  0  0  0  0  0  0  0  0  0  0
    4.7130    0.7176   -1.7581 H   0  0  0  0  0  0  0  0  0  0  0  0
    2.8389   -1.1795    1.6569 H   0  0  0  0  0  0  0  0  0  0  0  0
    6.6182   -0.8458   -1.4335 H   0  0  0  0  0  0  0  0  0  0  0  0
    4.8065   -2.6519    1.7922 H   0  0  0  0  0  0  0  0  0  0  0  0
  1 15  1  0  0  0  0
  2 18  2  0  0  0  0
  3  7  1  0  0  0  0
  3 10  1  0  0  0  0
  3 24  1  0  0  0  0
  4 11  1  0  0  0  0
  4 18  1  0  0  0  0
  4 29  1  0  0  0  0
  5 16  2  0  0  0  0
  5 17  1  0  0  0  0
  6 22  2  0  0  0  0
  6 23  1  0  0  0  0
  7  8  2  0  0  0  0
  7 11  1  0  0  0  0
  8  9  1  0  0  0  0
  8 12  1  0  0  0  0
  9 10  2  0  0  0  0
  9 14  1  0  0  0  0
 10 16  1  0  0  0  0
 11 13  2  0  0  0  0
 12 15  2  0  0  0  0
 12 25  1  0  0  0  0
 13 15  1  0  0  0  0
 13 26  1  0  0  0  0
 14 17  2  0  0  0  0
 14 27  1  0  0  0  0
 16 28  1  0  0  0  0
 17 30  1  0  0  0  0
 18 19  1  0  0  0  0
 19 20  2  0  0  0  0
 19 21  1  0  0  0  0
 20 22  1  0  0  0  0
 20 31  1  0  0  0  0
 21 23  2  0  0  0  0
 21 32  1  0  0  0  0
 22 33  1  0  0  0  0
 23 34  1  0  0  0  0
M  END
> <PUBCHEM_COMPOUND_CID>
10448840

> <PUBCHEM_CONFORMER_RMSD>
0.6

> <PUBCHEM_CONFORMER_DIVERSEORDER>
2
3
4
1
5
6

> <PUBCHEM_MMFF94_PARTIAL_CHARGES>
32
1 -0.18
10 -0.15
11 0.12
12 -0.15
13 -0.15
14 -0.15
15 0.18
16 0.16
17 0.16
18 0.54
19 0.09
2 -0.57
20 -0.15
21 -0.15
22 0.16
23 0.16
24 0.27
25 0.15
26 0.15
27 0.15
28 0.15
29 0.37
3 0.03
30 0.15
31 0.15
32 0.15
33 0.15
34 0.15
4 -0.55
5 -0.62
6 -0.62
7 -0.15

> <PUBCHEM_EFFECTIVE_ROTOR_COUNT>
3

> <PUBCHEM_PHARMACOPHORE_FEATURES>
10
1 2 acceptor
1 3 cation
1 3 donor
1 4 donor
1 5 acceptor
1 6 acceptor
5 3 7 8 9 10 rings
6 5 9 10 14 16 17 rings
6 6 19 20 21 22 23 rings
6 7 8 11 12 13 15 rings

> <PUBCHEM_HEAVY_ATOM_COUNT>
23

> <PUBCHEM_ATOM_DEF_STEREO_COUNT>
0

> <PUBCHEM_ATOM_UDEF_STEREO_COUNT>
0

> <PUBCHEM_BOND_DEF_STEREO_COUNT>
0

> <PUBCHEM_BOND_UDEF_STEREO_COUNT>
0

> <PUBCHEM_ISOTOPIC_ATOM_COUNT>
0

> <PUBCHEM_COMPONENT_COUNT>
1

> <PUBCHEM_CACTVS_TAUTO_COUNT>
4

> <PUBCHEM_CONFORMER_ID>
009F6FC800000002

> <PUBCHEM_MMFF94_ENERGY>
65.752

> <PUBCHEM_FEATURE_SELFOVERLAP>
50.933

> <PUBCHEM_SHAPE_FINGERPRINT>
10319926 262 18126261084106515162
10369192 42 17198795765714745352
10411042 1 18339642343166680315
10595046 47 18335425647803004244
10616163 171 18339643335177934406
10622 236 18042388150458706026
10693767 8 18055053618483945903
11045515 52 18186237351051528493
11056379 131 18268436741480225084
11265709 11 18410859888577190561
12107183 9 17542219061316114890
12166972 35 17967535713625816479
12236239 1 18041000618201980358
12403259 226 18342452655863922408
12553582 1 18339350963705592107
12760667 363 18413668015599867207
12788726 201 18334854970264629059
12969540 37 17688585378879352223
13004483 165 18341325677851196837
13140716 1 18343019995353002633
13167823 11 18261958440876585546
13631057 29 18411702084888651424
138480 1 15456777379547981633
13862211 1 18341610451864236615
13955234 65 17621041297612257233
14347332 77 18335698312957901814
14508225 48 18410566301883045509
14576447 43 18260831501709099918
14790565 3 17404307296106018937
14866123 147 18341336579127229249
15042514 8 18411983525242243441
15250474 111 18189329070670005778
15352361 1 18411418440231062062
16087824 20 18266741291300387945
17492 89 18411138000890362318
17857418 61 18408602561167209522
20374829 77 18412544327369034383
20403669 9 18343025501268772566
21033648 29 16772934910386977242
21267235 1 18409737278694677811
21279426 13 18335689573369289837
21478907 32 18410292514802355041
21703447 108 18340195393236861224
22950370 63 18338521949196973115
2297311 6 18343028778497241134
23366157 5 17831296473690926069
23402539 116 18342736304404814485
23522609 53 18121815860762741861
23557571 272 18059864908850216540
23559900 14 18339633537898648457
23622692 118 18409730656018488364
25147074 1 18336565857760856900
3004659 81 18187361060355763966
335352 9 18411417315941082885
3421961 26 18197776815620698769
351380 3 18410011048378928518
397830 11 18129079184190978418
4214541 1 18337673001829925620
4409770 3 18263638460411358717
463206 1 18264207087520449371
465052 167 18271250528905918038
5104073 3 18202004347466314849
559249 180 18262513672109261162
59755656 215 18340205176871473271
7164475 11 18408041805963331460
7237137 82 18259987050212820188
77188 2 18340205318801020625
7970288 3 18339639052774345647
9709674 26 18199472060887726590

> <PUBCHEM_SHAPE_MULTIPOLES>
449.41
12.46
3.96
0.8
11.22
3.75
0.01
-11.22
-1.15
-4.17
0.33
0.76
-0.08
-1

> <PUBCHEM_SHAPE_SELFOVERLAP>
1005.902

> <PUBCHEM_SHAPE_VOLUME>
238.9

> <PUBCHEM_COORDINATE_TYPE>
2
5
10

$$$$
