11715767
  -OEChem-10052120443D

 27 29  0     0  0  0  0  0  0999 V2000
   -3.1760    2.2802   -0.1705 O   0  0  0  0  0  0  0  0  0  0  0  0
   -0.1953   -1.1624    0.2588 N   0  0  0  0  0  0  0  0  0  0  0  0
   -4.0573    0.1450   -0.0905 N   0  0  0  0  0  0  0  0  0  0  0  0
    4.7454    0.0564   -0.0554 N   0  0  0  0  0  0  0  0  0  0  0  0
   -1.5303   -0.8785    0.2301 C   0  0  0  0  0  0  0  0  0  0  0  0
   -2.6336   -1.8397    0.4637 C   0  0  0  0  0  0  0  0  0  0  0  0
   -1.6912    0.4657   -0.0313 C   0  0  0  0  0  0  0  0  0  0  0  0
   -3.8816   -1.3030   -0.2473 C   0  0  0  0  0  0  0  0  0  0  0  0
    0.5092   -0.0068    0.0249 C   0  0  0  0  0  0  0  0  0  0  0  0
   -0.3948    1.0215   -0.1531 C   0  0  0  0  0  0  0  0  0  0  0  0
   -3.0094    1.0655   -0.1110 C   0  0  0  0  0  0  0  0  0  0  0  0
    1.9520    0.0146   -0.0027 C   0  0  0  0  0  0  0  0  0  0  0  0
    2.6393    1.1593    0.3835 C   0  0  0  0  0  0  0  0  0  0  0  0
    2.6581   -1.1093   -0.4151 C   0  0  0  0  0  0  0  0  0  0  0  0
    4.0238    1.1294    0.3396 C   0  0  0  0  0  0  0  0  0  0  0  0
    4.0418   -1.0378   -0.4235 C   0  0  0  0  0  0  0  0  0  0  0  0
   -2.3887   -2.8423    0.0987 H   0  0  0  0  0  0  0  0  0  0  0  0
   -2.8223   -1.9076    1.5416 H   0  0  0  0  0  0  0  0  0  0  0  0
   -3.8106   -1.4883   -1.3258 H   0  0  0  0  0  0  0  0  0  0  0  0
   -4.7850   -1.7973    0.1232 H   0  0  0  0  0  0  0  0  0  0  0  0
    0.2010   -2.0739    0.4446 H   0  0  0  0  0  0  0  0  0  0  0  0
   -0.1547    2.0569   -0.3552 H   0  0  0  0  0  0  0  0  0  0  0  0
   -5.0038    0.5103   -0.1322 H   0  0  0  0  0  0  0  0  0  0  0  0
    2.1335    2.0584    0.7197 H   0  0  0  0  0  0  0  0  0  0  0  0
    2.1722   -2.0239   -0.7383 H   0  0  0  0  0  0  0  0  0  0  0  0
    4.6079    1.9958    0.6323 H   0  0  0  0  0  0  0  0  0  0  0  0
    4.6400   -1.8860   -0.7397 H   0  0  0  0  0  0  0  0  0  0  0  0
  1 11  2  0  0  0  0
  2  5  1  0  0  0  0
  2  9  1  0  0  0  0
  2 21  1  0  0  0  0
  3  8  1  0  0  0  0
  3 11  1  0  0  0  0
  3 23  1  0  0  0  0
  4 15  2  0  0  0  0
  4 16  1  0  0  0  0
  5  6  1  0  0  0  0
  5  7  2  0  0  0  0
  6  8  1  0  0  0  0
  6 17  1  0  0  0  0
  6 18  1  0  0  0  0
  7 10  1  0  0  0  0
  7 11  1  0  0  0  0
  8 19  1  0  0  0  0
  8 20  1  0  0  0  0
  9 10  2  0  0  0  0
  9 12  1  0  0  0  0
 10 22  1  0  0  0  0
 12 13  2  0  0  0  0
 12 14  1  0  0  0  0
 13 15  1  0  0  0  0
 13 24  1  0  0  0  0
 14 16  2  0  0  0  0
 14 25  1  0  0  0  0
 15 26  1  0  0  0  0
 16 27  1  0  0  0  0
M  END
> <PUBCHEM_COMPOUND_CID>
11715767

> <PUBCHEM_CONFORMER_RMSD>
0.6

> <PUBCHEM_CONFORMER_DIVERSEORDER>
1
2

> <PUBCHEM_MMFF94_PARTIAL_CHARGES>
23
1 -0.57
10 -0.15
11 0.72
12 0.05
13 -0.15
14 -0.15
15 0.16
16 0.16
2 0.03
21 0.27
22 0.15
23 0.37
24 0.15
25 0.15
26 0.15
27 0.15
3 -0.73
4 -0.62
5 -0.33
6 0.18
7 -0.09
8 0.3
9 -0.2

> <PUBCHEM_EFFECTIVE_ROTOR_COUNT>
1.6

> <PUBCHEM_PHARMACOPHORE_FEATURES>
8
1 1 acceptor
1 2 cation
1 2 donor
1 3 donor
1 4 acceptor
5 2 5 7 9 10 rings
6 3 5 6 7 8 11 rings
6 4 12 13 14 15 16 rings

> <PUBCHEM_HEAVY_ATOM_COUNT>
16

> <PUBCHEM_ATOM_DEF_STEREO_COUNT>
0

> <PUBCHEM_ATOM_UDEF_STEREO_COUNT>
0

> <PUBCHEM_BOND_DEF_STEREO_COUNT>
0

> <PUBCHEM_BOND_UDEF_STEREO_COUNT>
0

> <PUBCHEM_ISOTOPIC_ATOM_COUNT>
0

> <PUBCHEM_COMPONENT_COUNT>
1

> <PUBCHEM_CACTVS_TAUTO_COUNT>
5

> <PUBCHEM_CONFORMER_ID>
00B2C4B700000001

> <PUBCHEM_MMFF94_ENERGY>
30.9817

> <PUBCHEM_FEATURE_SELFOVERLAP>
40.692

> <PUBCHEM_SHAPE_FINGERPRINT>
10014705 185 18187080642078288301
10608611 8 18412542128419670856
10680689 15 18335428962531358611
11132069 177 18333730225767278885
11471102 20 18272369772267027020
11615757 297 17131556127895783650
12032990 46 18410860987788150955
12500047 106 18336825307886096206
12507560 40 18343580763710456840
13296908 3 18413109472092773038
14325111 11 18411136930904941648
14866123 147 16760018728226227882
15196674 1 18411418410107956876
15219456 202 18343021099148469686
15375358 24 18412825789576900678
15536298 74 18413670218886129578
17834074 16 18412265047120598942
18186145 218 18335416824990813780
19141452 34 18129667525442647583
1986462 14 18408324375776374807
200 152 17632294587967403095
20279233 1 18413112766469956030
20510252 161 18413672409340705913
20645477 56 18336268946919259893
20645477 70 17774726364128758486
21065198 57 18411981351835433976
21065201 7 18333729104997066682
21267235 1 18409739473053674898
2306618 200 18202009819792570513
23402539 116 18411693314507476047
23402655 69 18272650121682952316
23557571 272 18341902887106694500
23559900 14 18269835329319652478
3545911 37 18412547604534459288
4028521 119 18261101951182937277
4214541 1 18411419488224064320
474 4 16589160514091484324
4990 188 18271530814709028302
5104073 3 18411981351925144682
573450 72 18187070737804303314
69090 78 18343579663724322407
7364860 26 18194405721781755852
77779 3 18411983559369522332
9709674 26 18412269440919953462

> <PUBCHEM_SHAPE_MULTIPOLES>
308.46
8.86
1.79
0.67
3.48
0.21
0.01
-0.08
-0.39
-1.13
0.02
0.07
-0.05
0.58

> <PUBCHEM_SHAPE_SELFOVERLAP>
684.617

> <PUBCHEM_SHAPE_VOLUME>
162.1

> <PUBCHEM_COORDINATE_TYPE>
2
5
10

$$$$
