46233287
  -OEChem-10062122033D

 71 75  0     0  0  0  0  0  0999 V2000
    9.3256    1.2160    0.7515 S   0  0  0  0  0  0  0  0  0  0  0  0
    3.9779    0.4441   -2.5312 O   0  0  0  0  0  0  0  0  0  0  0  0
    9.1954    2.3042    1.6947 O   0  0  0  0  0  0  0  0  0  0  0  0
   10.2902    1.2514   -0.3249 O   0  0  0  0  0  0  0  0  0  0  0  0
   -8.7910    0.9423    0.1989 O   0  0  0  0  0  0  0  0  0  0  0  0
    2.7848   -0.6623   -0.8730 N   0  0  0  0  0  0  0  0  0  0  0  0
    7.7807    0.8716    0.0937 N   0  0  0  0  0  0  0  0  0  0  0  0
   -0.3393   -1.8511    0.5465 N   0  0  0  0  0  0  0  0  0  0  0  0
   -2.4469   -0.9077    0.3231 N   0  0  0  0  0  0  0  0  0  0  0  0
   -2.1388   -3.3038    0.3363 N   0  0  0  0  0  0  0  0  0  0  0  0
   -4.3621    1.3333   -0.0181 N   0  0  0  0  0  0  0  0  0  0  0  0
   -5.4590    2.1164   -0.0641 N   0  0  0  0  0  0  0  0  0  0  0  0
   -8.0258    3.1148   -0.0688 N   0  0  0  0  0  0  0  0  0  0  0  0
    5.1983   -0.2434   -0.6322 C   0  0  0  0  0  0  0  0  0  0  0  0
    5.3250    0.9604    0.3029 C   0  0  0  0  0  0  0  0  0  0  0  0
    6.4083   -0.3327   -1.5630 C   0  0  0  0  0  0  0  0  0  0  0  0
    0.2952   -0.5504    0.6279 C   0  0  0  0  0  0  0  0  0  0  0  0
    2.7081   -1.3381    0.4270 C   0  0  0  0  0  0  0  0  0  0  0  0
    1.5203   -0.6048   -1.6070 C   0  0  0  0  0  0  0  0  0  0  0  0
    1.6576   -0.6750    1.3189 C   0  0  0  0  0  0  0  0  0  0  0  0
    0.4311    0.0658   -0.7695 C   0  0  0  0  0  0  0  0  0  0  0  0
    6.6472    0.9331    1.0629 C   0  0  0  0  0  0  0  0  0  0  0  0
    7.7130   -0.3417   -0.7727 C   0  0  0  0  0  0  0  0  0  0  0  0
    3.9401   -0.1200   -1.4347 C   0  0  0  0  0  0  0  0  0  0  0  0
   -1.7024   -2.0278    0.3958 C   0  0  0  0  0  0  0  0  0  0  0  0
    9.5808   -0.2800    1.6699 C   0  0  0  0  0  0  0  0  0  0  0  0
   -3.7670   -1.1303    0.1806 C   0  0  0  0  0  0  0  0  0  0  0  0
   -4.3571   -2.3947    0.1135 C   0  0  0  0  0  0  0  0  0  0  0  0
   -4.6516    0.0103    0.1139 C   0  0  0  0  0  0  0  0  0  0  0  0
   -5.8410   -2.5671   -0.1325 C   0  0  0  0  0  0  0  0  0  0  0  0
   -6.7189   -1.3821    0.3532 C   0  0  0  0  0  0  0  0  0  0  0  0
   -6.0249   -0.0799    0.1684 C   0  0  0  0  0  0  0  0  0  0  0  0
   -3.4732   -3.4537    0.1866 C   0  0  0  0  0  0  0  0  0  0  0  0
   -6.4705    1.2473    0.0543 C   0  0  0  0  0  0  0  0  0  0  0  0
   -3.0640    1.9565   -0.1331 C   0  0  0  0  0  0  0  0  0  0  0  0
   -7.8230    1.7271    0.0612 C   0  0  0  0  0  0  0  0  0  0  0  0
   -9.3229    3.7522   -0.0571 C   0  0  0  0  0  0  0  0  0  0  0  0
    5.2179   -1.1765   -0.0646 H   0  0  0  0  0  0  0  0  0  0  0  0
    5.2594    1.8904   -0.2780 H   0  0  0  0  0  0  0  0  0  0  0  0
    4.4952    0.9849    1.0183 H   0  0  0  0  0  0  0  0  0  0  0  0
    6.3446   -1.2357   -2.1825 H   0  0  0  0  0  0  0  0  0  0  0  0
    6.4282    0.5209   -2.2536 H   0  0  0  0  0  0  0  0  0  0  0  0
   -0.3176    0.1117    1.2533 H   0  0  0  0  0  0  0  0  0  0  0  0
    1.5643   -1.2366    2.2562 H   0  0  0  0  0  0  0  0  0  0  0  0
    2.0076    0.3319    1.5813 H   0  0  0  0  0  0  0  0  0  0  0  0
   -0.5150    0.0360   -1.3202 H   0  0  0  0  0  0  0  0  0  0  0  0
    0.6928    1.1257   -0.6509 H   0  0  0  0  0  0  0  0  0  0  0  0
    3.6463   -1.3371    0.9779 H   0  0  0  0  0  0  0  0  0  0  0  0
    2.4548   -2.3865    0.2329 H   0  0  0  0  0  0  0  0  0  0  0  0
    1.2383   -1.6347   -1.8555 H   0  0  0  0  0  0  0  0  0  0  0  0
    1.6419   -0.0650   -2.5514 H   0  0  0  0  0  0  0  0  0  0  0  0
    6.7129    1.8432    1.6672 H   0  0  0  0  0  0  0  0  0  0  0  0
    6.6713    0.0679    1.7336 H   0  0  0  0  0  0  0  0  0  0  0  0
    7.7600   -1.2504   -0.1636 H   0  0  0  0  0  0  0  0  0  0  0  0
    8.5502   -0.3495   -1.4779 H   0  0  0  0  0  0  0  0  0  0  0  0
    0.2304   -2.6889    0.5632 H   0  0  0  0  0  0  0  0  0  0  0  0
    9.6723   -1.1296    0.9929 H   0  0  0  0  0  0  0  0  0  0  0  0
    8.7785   -0.4231    2.3935 H   0  0  0  0  0  0  0  0  0  0  0  0
   10.5237   -0.1668    2.2124 H   0  0  0  0  0  0  0  0  0  0  0  0
   -5.9778   -2.6847   -1.2156 H   0  0  0  0  0  0  0  0  0  0  0  0
   -6.1990   -3.4887    0.3417 H   0  0  0  0  0  0  0  0  0  0  0  0
   -6.9288   -1.5094    1.4229 H   0  0  0  0  0  0  0  0  0  0  0  0
   -7.6783   -1.4072   -0.1736 H   0  0  0  0  0  0  0  0  0  0  0  0
   -3.8141   -4.4815    0.1189 H   0  0  0  0  0  0  0  0  0  0  0  0
   -2.5078    1.7760    0.7897 H   0  0  0  0  0  0  0  0  0  0  0  0
   -3.1879    3.0332   -0.2786 H   0  0  0  0  0  0  0  0  0  0  0  0
   -2.5491    1.5316   -0.9977 H   0  0  0  0  0  0  0  0  0  0  0  0
   -7.2133    3.7114   -0.1962 H   0  0  0  0  0  0  0  0  0  0  0  0
  -10.0586    3.1259    0.4528 H   0  0  0  0  0  0  0  0  0  0  0  0
   -9.2305    4.7131    0.4544 H   0  0  0  0  0  0  0  0  0  0  0  0
   -9.6324    3.9161   -1.0921 H   0  0  0  0  0  0  0  0  0  0  0  0
  1  3  2  0  0  0  0
  1  4  2  0  0  0  0
  1  7  1  0  0  0  0
  1 26  1  0  0  0  0
  2 24  2  0  0  0  0
  5 36  2  0  0  0  0
  6 18  1  0  0  0  0
  6 19  1  0  0  0  0
  6 24  1  0  0  0  0
  7 22  1  0  0  0  0
  7 23  1  0  0  0  0
  8 17  1  0  0  0  0
  8 25  1  0  0  0  0
  8 56  1  0  0  0  0
  9 25  1  0  0  0  0
  9 27  2  0  0  0  0
 10 25  2  0  0  0  0
 10 33  1  0  0  0  0
 11 12  1  0  0  0  0
 11 29  1  0  0  0  0
 11 35  1  0  0  0  0
 12 34  2  0  0  0  0
 13 36  1  0  0  0  0
 13 37  1  0  0  0  0
 13 68  1  0  0  0  0
 14 15  1  0  0  0  0
 14 16  1  0  0  0  0
 14 24  1  0  0  0  0
 14 38  1  0  0  0  0
 15 22  1  0  0  0  0
 15 39  1  0  0  0  0
 15 40  1  0  0  0  0
 16 23  1  0  0  0  0
 16 41  1  0  0  0  0
 16 42  1  0  0  0  0
 17 20  1  0  0  0  0
 17 21  1  0  0  0  0
 17 43  1  0  0  0  0
 18 20  1  0  0  0  0
 18 48  1  0  0  0  0
 18 49  1  0  0  0  0
 19 21  1  0  0  0  0
 19 50  1  0  0  0  0
 19 51  1  0  0  0  0
 20 44  1  0  0  0  0
 20 45  1  0  0  0  0
 21 46  1  0  0  0  0
 21 47  1  0  0  0  0
 22 52  1  0  0  0  0
 22 53  1  0  0  0  0
 23 54  1  0  0  0  0
 23 55  1  0  0  0  0
 26 57  1  0  0  0  0
 26 58  1  0  0  0  0
 26 59  1  0  0  0  0
 27 28  1  0  0  0  0
 27 29  1  0  0  0  0
 28 30  1  0  0  0  0
 28 33  2  0  0  0  0
 29 32  2  0  0  0  0
 30 31  1  0  0  0  0
 30 60  1  0  0  0  0
 30 61  1  0  0  0  0
 31 32  1  0  0  0  0
 31 62  1  0  0  0  0
 31 63  1  0  0  0  0
 32 34  1  0  0  0  0
 33 64  1  0  0  0  0
 34 36  1  0  0  0  0
 35 65  1  0  0  0  0
 35 66  1  0  0  0  0
 35 67  1  0  0  0  0
 37 69  1  0  0  0  0
 37 70  1  0  0  0  0
 37 71  1  0  0  0  0
M  END
> <PUBCHEM_COMPOUND_CID>
46233287

> <PUBCHEM_CONFORMER_RMSD>
1.2

> <PUBCHEM_CONFORMER_DIVERSEORDER>
1
60
83
61
39
90
94
57
89
32
80
97
79
101
63
45
108
84
18
111
15
58
22
50
113
100
10
66
76
46
27
47
30
49
64
43
33
96
68
102
92
16
75
77
81
48
9
72
86
59
21
36
5
107
67
91
98
85
6
82
12
38
69
35
41
19
20
74
55
105
4
24
40
54
37
7
106
56
62
53
8
34
112
25
65
78
104
3
44
70
31
87
11
26
29
95
93
51
42
88
71
99
13
52
114
109
2
103
14
110
17
73
23
28

> <PUBCHEM_MMFF94_PARTIAL_CHARGES>
36
1 1.33
10 -0.62
11 0.31
12 -0.71
13 -0.73
14 0.06
17 0.37
18 0.3
19 0.3
2 -0.57
22 0.36
23 0.36
24 0.57
25 0.72
26 0.11
27 0.36
28 -0.14
29 -0.2
3 -0.65
30 0.14
31 0.18
32 -0.18
33 0.16
34 0.2
35 0.26
36 0.72
37 0.3
4 -0.65
5 -0.57
56 0.4
6 -0.66
64 0.15
68 0.37
7 -0.85
8 -0.87
9 -0.62

> <PUBCHEM_EFFECTIVE_ROTOR_COUNT>
9.8

> <PUBCHEM_PHARMACOPHORE_FEATURES>
14
1 12 acceptor
1 13 donor
1 2 acceptor
1 3 acceptor
1 4 acceptor
1 5 acceptor
1 8 donor
1 9 acceptor
4 8 9 10 25 cation
5 11 12 29 32 34 rings
6 27 28 29 30 31 32 rings
6 6 17 18 19 20 21 rings
6 7 14 15 16 22 23 rings
6 9 10 25 27 28 33 rings

> <PUBCHEM_HEAVY_ATOM_COUNT>
37

> <PUBCHEM_ATOM_DEF_STEREO_COUNT>
0

> <PUBCHEM_ATOM_UDEF_STEREO_COUNT>
0

> <PUBCHEM_BOND_DEF_STEREO_COUNT>
0

> <PUBCHEM_BOND_UDEF_STEREO_COUNT>
0

> <PUBCHEM_ISOTOPIC_ATOM_COUNT>
0

> <PUBCHEM_COMPONENT_COUNT>
1

> <PUBCHEM_CACTVS_TAUTO_COUNT>
12

> <PUBCHEM_CONFORMER_ID>
02C176C700000001

> <PUBCHEM_MMFF94_ENERGY>
77.9308

> <PUBCHEM_FEATURE_SELFOVERLAP>
71.177

> <PUBCHEM_SHAPE_FINGERPRINT>
10280341 67 18336823100991006629
10411042 1 17977108191767744587
10533779 1 18261387781916648885
10533779 47 14418128488342225664
10835480 77 18131919251824767542
11103572 95 18410855439719923146
11135926 11 17676479553625544226
11181472 205 18187087265824765252
11421887 45 18339347579789392825
11456790 92 15791736282509852821
11475781 23 18271536320382497878
11578821 258 18341333409315556520
12013929 2 18342462522516455646
12089408 11 17894630379486413190
12144603 126 17749394810953292092
12758862 11 18273219698559954066
12838862 33 18259979345917242885
13811026 1 18342458175439846168
14294032 229 17968093071337289204
14394314 77 18261112946605624749
150020 25 17988929968309372284
15183329 4 17386006212945783222
15320295 198 17988080114546366784
15455200 26 17318155136328858165
1577012 14 18260545598420959035
20105231 36 8070027766270736608
21362267 2 17202474676588951992
21362267 313 18408879630788993016
21756936 100 18410291424482302191
21781055 127 17822301171927754574
21792938 703 12463570724781107916
23389318 12 14117796916936408282
23522609 53 17024615458146835678
23576562 1 16271347729685277777
306946 40 17703781523450900712
3178227 256 14779547894671968896
3918712 181 18267864987503808161
4403749 210 17846214522697091030
44280117 145 18270962479004352783
44802255 64 17632858646603149815
504579 68 12895072929562254626
5265222 85 18342457049689656795
54039377 194 10591754399072457353
54728670 133 15358246093156439183
57035037 87 18342176696294827328
58083652 198 16009026245561862662
5937810 71 17631458874313039057
6201320 215 18337666421681929312
636775 72 18413671301392715313
636775 8 10159692504581595557
99344 41 18408603674007162602

> <PUBCHEM_SHAPE_MULTIPOLES>
701.97
34.49
3.26
1.29
37.18
0.13
-0.36
27.2
6.21
-9.65
0.46
3.39
0.06
1.47

> <PUBCHEM_SHAPE_SELFOVERLAP>
1487.501

> <PUBCHEM_SHAPE_VOLUME>
394.8

> <PUBCHEM_COORDINATE_TYPE>
2
5
10

$$$$
