49830817
  -OEChem-10062121543D

 40 43  0     0  0  0  0  0  0999 V2000
   -1.1300    2.0691   -0.3029 S   0  0  0  0  0  0  0  0  0  0  0  0
    5.3465    0.1190    1.9698 O   0  0  0  0  0  0  0  0  0  0  0  0
    6.5391   -0.0521   -0.1173 O   0  0  0  0  0  0  0  0  0  0  0  0
   -6.2629    1.4852   -0.3502 O   0  0  0  0  0  0  0  0  0  0  0  0
   -1.0311   -2.4090   -0.3013 N   0  0  0  0  0  0  0  0  0  0  0  0
    1.3303   -2.3136   -0.2889 N   0  0  0  0  0  0  0  0  0  0  0  0
   -7.1481   -0.3011    0.8444 N   0  0  0  0  0  0  0  0  0  0  0  0
    1.0581    0.7407   -0.2910 C   0  0  0  0  0  0  0  0  0  0  0  0
    0.0176   -0.2475   -0.2963 C   0  0  0  0  0  0  0  0  0  0  0  0
    2.4797    0.5349   -0.2822 C   0  0  0  0  0  0  0  0  0  0  0  0
   -1.2462    0.3494   -0.3032 C   0  0  0  0  0  0  0  0  0  0  0  0
    3.1582    0.4354    0.9348 C   0  0  0  0  0  0  0  0  0  0  0  0
    0.5741    2.0274   -0.2938 C   0  0  0  0  0  0  0  0  0  0  0  0
   -2.4145   -0.4220   -0.3093 C   0  0  0  0  0  0  0  0  0  0  0  0
    4.5232    0.2380    0.8927 C   0  0  0  0  0  0  0  0  0  0  0  0
    0.0873   -1.6497   -0.2954 C   0  0  0  0  0  0  0  0  0  0  0  0
    3.1756    0.4352   -1.4998 C   0  0  0  0  0  0  0  0  0  0  0  0
    5.2043    0.1403   -0.2992 C   0  0  0  0  0  0  0  0  0  0  0  0
    4.5580    0.2350   -1.5145 C   0  0  0  0  0  0  0  0  0  0  0  0
   -2.2296   -1.7933   -0.3080 C   0  0  0  0  0  0  0  0  0  0  0  0
    6.6221   -0.0650    1.3224 C   0  0  0  0  0  0  0  0  0  0  0  0
   -3.7265    0.1919   -0.3115 C   0  0  0  0  0  0  0  0  0  0  0  0
   -4.8394   -0.3301    0.2599 C   0  0  0  0  0  0  0  0  0  0  0  0
   -6.1391    0.3981    0.2041 C   0  0  0  0  0  0  0  0  0  0  0  0
   -8.5070    0.1840    0.9367 C   0  0  0  0  0  0  0  0  0  0  0  0
    2.6397    0.5086    1.8856 H   0  0  0  0  0  0  0  0  0  0  0  0
    1.1328    2.9541   -0.2909 H   0  0  0  0  0  0  0  0  0  0  0  0
    2.6463    0.5116   -2.4473 H   0  0  0  0  0  0  0  0  0  0  0  0
    5.0982    0.1574   -2.4511 H   0  0  0  0  0  0  0  0  0  0  0  0
   -3.0694   -2.4826   -0.3238 H   0  0  0  0  0  0  0  0  0  0  0  0
    7.2969    0.7374    1.6422 H   0  0  0  0  0  0  0  0  0  0  0  0
    7.0420   -1.0259    1.6412 H   0  0  0  0  0  0  0  0  0  0  0  0
   -3.8062    1.1480   -0.8225 H   0  0  0  0  0  0  0  0  0  0  0  0
    1.3245   -3.3255   -0.2888 H   0  0  0  0  0  0  0  0  0  0  0  0
    2.2138   -1.8335   -0.2856 H   0  0  0  0  0  0  0  0  0  0  0  0
   -4.8108   -1.2776    0.7886 H   0  0  0  0  0  0  0  0  0  0  0  0
   -6.9449   -1.1935    1.2850 H   0  0  0  0  0  0  0  0  0  0  0  0
   -8.6531    1.0789    0.3275 H   0  0  0  0  0  0  0  0  0  0  0  0
   -9.1767   -0.6100    0.5978 H   0  0  0  0  0  0  0  0  0  0  0  0
   -8.7166    0.4113    1.9848 H   0  0  0  0  0  0  0  0  0  0  0  0
  1 11  1  0  0  0  0
  1 13  1  0  0  0  0
  2 15  1  0  0  0  0
  2 21  1  0  0  0  0
  3 18  1  0  0  0  0
  3 21  1  0  0  0  0
  4 24  2  0  0  0  0
  5 16  2  0  0  0  0
  5 20  1  0  0  0  0
  6 16  1  0  0  0  0
  6 34  1  0  0  0  0
  6 35  1  0  0  0  0
  7 24  1  0  0  0  0
  7 25  1  0  0  0  0
  7 37  1  0  0  0  0
  8  9  1  0  0  0  0
  8 10  1  0  0  0  0
  8 13  2  0  0  0  0
  9 11  2  0  0  0  0
  9 16  1  0  0  0  0
 10 12  2  0  0  0  0
 10 17  1  0  0  0  0
 11 14  1  0  0  0  0
 12 15  1  0  0  0  0
 12 26  1  0  0  0  0
 13 27  1  0  0  0  0
 14 20  2  0  0  0  0
 14 22  1  0  0  0  0
 15 18  2  0  0  0  0
 17 19  2  0  0  0  0
 17 28  1  0  0  0  0
 18 19  1  0  0  0  0
 19 29  1  0  0  0  0
 20 30  1  0  0  0  0
 21 31  1  0  0  0  0
 21 32  1  0  0  0  0
 22 23  2  3  0  0  0
 22 33  1  0  0  0  0
 23 24  1  0  0  0  0
 23 36  1  0  0  0  0
 25 38  1  0  0  0  0
 25 39  1  0  0  0  0
 25 40  1  0  0  0  0
M  END
> <PUBCHEM_COMPOUND_CID>
49830817

> <PUBCHEM_CONFORMER_RMSD>
0.8

> <PUBCHEM_CONFORMER_DIVERSEORDER>
1
4
2
3

> <PUBCHEM_MMFF94_PARTIAL_CHARGES>
34
1 -0.08
10 0.05
11 0.04
12 -0.15
13 -0.11
14 0.03
15 0.08
16 0.41
17 -0.15
18 0.08
19 -0.15
2 -0.36
20 0.16
21 0.56
22 -0.18
23 -0.14
24 0.62
25 0.3
26 0.15
27 0.15
28 0.15
29 0.15
3 -0.36
30 0.15
33 0.15
34 0.4
35 0.4
36 0.15
37 0.37
4 -0.57
5 -0.62
6 -0.9
7 -0.73
8 -0.05

> <PUBCHEM_EFFECTIVE_ROTOR_COUNT>
4.6

> <PUBCHEM_PHARMACOPHORE_FEATURES>
10
1 2 acceptor
1 3 acceptor
1 4 acceptor
1 6 donor
1 7 donor
3 5 6 16 cation
5 1 8 9 11 13 rings
5 2 3 15 18 21 rings
6 10 12 15 17 18 19 rings
6 5 9 11 14 16 20 rings

> <PUBCHEM_HEAVY_ATOM_COUNT>
25

> <PUBCHEM_ATOM_DEF_STEREO_COUNT>
0

> <PUBCHEM_ATOM_UDEF_STEREO_COUNT>
0

> <PUBCHEM_BOND_DEF_STEREO_COUNT>
0

> <PUBCHEM_BOND_UDEF_STEREO_COUNT>
1

> <PUBCHEM_ISOTOPIC_ATOM_COUNT>
0

> <PUBCHEM_COMPONENT_COUNT>
1

> <PUBCHEM_CACTVS_TAUTO_COUNT>
7

> <PUBCHEM_CONFORMER_ID>
02F85BA100000001

> <PUBCHEM_MMFF94_ENERGY>
70.637

> <PUBCHEM_FEATURE_SELFOVERLAP>
50.966

> <PUBCHEM_SHAPE_FINGERPRINT>
10 15 18335140924971428169
10162869 55 18411698817104341575
10299344 5 16950003634399543721
11646440 116 18131360717424865625
11719270 70 18334858294849286635
11963148 33 18187361060641549555
12035758 1 18341324565444319105
12236239 1 17676486151427897436
12838862 33 18341599405440342829
13140716 1 18266737076660103665
13533116 47 17632019641795001262
13540713 4 18049720724615256837
13862211 1 18409162246887275375
13914758 101 15267074613785535658
14251764 18 17967252022588346717
15048467 5 14549017688926386801
15131766 46 14906464599102049800
15142383 8 17313093133982865828
1601671 61 18408887330473266813
16728300 4 17387669644746315834
19141452 34 17988639743851270966
200 152 16660354875595330940
20157964 124 15267349517588877508
21033648 29 17560221644370591570
21150785 3 13686295782018394419
21267235 1 18040434365777300520
21781051 124 18114764692588144115
21792934 111 18339356341057199355
22182313 1 18264767653924342127
22224240 67 18343579655714500027
22956985 138 17754167583965059386
23402539 116 18272643580094079655
23522609 53 17314818268191609797
23536379 177 16226044483545673693
23559900 14 18271533100101297420
23569914 2 15263365827921049713
23569943 247 17558008155217625615
23845131 108 17335914386992723257
24771293 8 18130778018652966000
3004659 81 18259993686575394628
3009799 131 16774081769544209513
3178227 256 18335710459579232241
335352 9 18411139164256294149
3545911 37 18342182168130342791
3633792 109 14045475422485099908
4072396 5 18408321081626272374
4073 2 16917062312843615726
4340502 62 18272370862566507639
465052 167 17603590741665322225
469060 322 18339375058430548849
5104073 3 18265050425786081665
5385378 56 18341618066635757827
57527293 21 17915153889637913736
59755656 215 18341335500531242814
7226269 152 18201717362268251873

> <PUBCHEM_SHAPE_MULTIPOLES>
485.79
18.43
1.75
1.17
20.25
0.43
0.19
-1.86
7.14
0.83
-0.33
-1.66
-0.06
-0.08

> <PUBCHEM_SHAPE_SELFOVERLAP>
1069.663

> <PUBCHEM_SHAPE_VOLUME>
266.2

> <PUBCHEM_COORDINATE_TYPE>
2
5
10

$$$$
