475266
  -OEChem-10062122003D

 52 54  0     1  0  0  0  0  0999 V2000
    2.7854   -0.2840    1.3162 O   0  0  0  0  0  0  0  0  0  0  0  0
    5.9808    0.6096   -0.1834 O   0  0  0  0  0  0  0  0  0  0  0  0
    4.5809    0.4401   -2.5321 O   0  0  0  0  0  0  0  0  0  0  0  0
    3.4762    4.6074    1.0780 O   0  0  0  0  0  0  0  0  0  0  0  0
    1.9967    4.3904   -0.6524 O   0  0  0  0  0  0  0  0  0  0  0  0
    3.7880   -2.3304    1.6419 O   0  0  0  0  0  0  0  0  0  0  0  0
   -1.9295   -1.3867    0.4971 O   0  0  0  0  0  0  0  0  0  0  0  0
    0.5524   -5.0961   -1.2391 O   0  0  0  0  0  0  0  0  0  0  0  0
   -1.8561   -3.7697   -0.9124 O   0  0  0  0  0  0  0  0  0  0  0  0
   -1.5079   -0.2191   -1.4759 O   0  0  0  0  0  0  0  0  0  0  0  0
   -6.7118   -0.4872    1.3061 O   0  0  0  0  0  0  0  0  0  0  0  0
   -5.0685    3.4392   -0.8886 O   0  0  0  0  0  0  0  0  0  0  0  0
   -7.1024    2.1162    0.4457 O   0  0  0  0  0  0  0  0  0  0  0  0
    4.0288    0.4035    1.1966 C   0  0  1  0  0  0  0  0  0  0  0  0
    4.6748    0.0339   -0.1409 C   0  0  1  0  0  0  0  0  0  0  0  0
    3.8024    1.9211    1.3204 C   0  0  0  0  0  0  0  0  0  0  0  0
    3.8291    0.5324   -1.3262 C   0  0  1  0  0  0  0  0  0  0  0  0
    3.3451    2.5589    0.0389 C   0  0  0  0  0  0  0  0  0  0  0  0
    3.3455    1.9443   -1.1532 C   0  0  0  0  0  0  0  0  0  0  0  0
    2.8478    3.9365    0.0905 C   0  0  0  0  0  0  0  0  0  0  0  0
    2.8507   -1.6416    1.2701 C   0  0  0  0  0  0  0  0  0  0  0  0
    1.6044   -2.2052    0.6928 C   0  0  0  0  0  0  0  0  0  0  0  0
    0.4182   -1.5230    0.8715 C   0  0  0  0  0  0  0  0  0  0  0  0
    1.6706   -3.3938   -0.0051 C   0  0  0  0  0  0  0  0  0  0  0  0
   -0.7527   -2.0524    0.3288 C   0  0  0  0  0  0  0  0  0  0  0  0
    0.4998   -3.9232   -0.5479 C   0  0  0  0  0  0  0  0  0  0  0  0
   -0.7120   -3.2526   -0.3809 C   0  0  0  0  0  0  0  0  0  0  0  0
   -3.5099    0.2192   -0.2578 C   0  0  0  0  0  0  0  0  0  0  0  0
   -2.2159   -0.4635   -0.5105 C   0  0  0  0  0  0  0  0  0  0  0  0
   -3.6766    1.5165   -0.6973 C   0  0  0  0  0  0  0  0  0  0  0  0
   -4.5060   -0.4645    0.4092 C   0  0  0  0  0  0  0  0  0  0  0  0
   -5.7216    0.1771    0.6469 C   0  0  0  0  0  0  0  0  0  0  0  0
   -4.8921    2.1583   -0.4595 C   0  0  0  0  0  0  0  0  0  0  0  0
   -5.9148    1.4885    0.2125 C   0  0  0  0  0  0  0  0  0  0  0  0
    4.6752    0.1034    2.0322 H   0  0  0  0  0  0  0  0  0  0  0  0
    4.8247   -1.0446   -0.2512 H   0  0  0  0  0  0  0  0  0  0  0  0
    3.0617    2.1083    2.1078 H   0  0  0  0  0  0  0  0  0  0  0  0
    4.7457    2.3925    1.6240 H   0  0  0  0  0  0  0  0  0  0  0  0
    2.9446   -0.1039   -1.4482 H   0  0  0  0  0  0  0  0  0  0  0  0
    2.9758    2.4483   -2.0427 H   0  0  0  0  0  0  0  0  0  0  0  0
    6.3591    0.4106   -1.0569 H   0  0  0  0  0  0  0  0  0  0  0  0
    4.8419   -0.4902   -2.6429 H   0  0  0  0  0  0  0  0  0  0  0  0
    0.3648   -0.5938    1.4321 H   0  0  0  0  0  0  0  0  0  0  0  0
    2.6159   -3.9128   -0.1377 H   0  0  0  0  0  0  0  0  0  0  0  0
    3.1698    5.5369    1.1455 H   0  0  0  0  0  0  0  0  0  0  0  0
    1.4711   -5.4153   -1.2526 H   0  0  0  0  0  0  0  0  0  0  0  0
   -2.8826    2.0444   -1.2182 H   0  0  0  0  0  0  0  0  0  0  0  0
   -4.3778   -1.4902    0.7432 H   0  0  0  0  0  0  0  0  0  0  0  0
   -2.5996   -3.1904   -0.6723 H   0  0  0  0  0  0  0  0  0  0  0  0
   -7.4792    0.1060    1.3833 H   0  0  0  0  0  0  0  0  0  0  0  0
   -6.0168    3.6237   -0.9848 H   0  0  0  0  0  0  0  0  0  0  0  0
   -6.9714    3.0781    0.4334 H   0  0  0  0  0  0  0  0  0  0  0  0
  1 14  1  0  0  0  0
  1 21  1  0  0  0  0
  2 15  1  0  0  0  0
  2 41  1  0  0  0  0
  3 17  1  0  0  0  0
  3 42  1  0  0  0  0
  4 20  1  0  0  0  0
  4 45  1  0  0  0  0
  5 20  2  0  0  0  0
  6 21  2  0  0  0  0
  7 25  1  0  0  0  0
  7 29  1  0  0  0  0
  8 26  1  0  0  0  0
  8 46  1  0  0  0  0
  9 27  1  0  0  0  0
  9 49  1  0  0  0  0
 10 29  2  0  0  0  0
 11 32  1  0  0  0  0
 11 50  1  0  0  0  0
 12 33  1  0  0  0  0
 12 51  1  0  0  0  0
 13 34  1  0  0  0  0
 13 52  1  0  0  0  0
 14 15  1  0  0  0  0
 14 16  1  0  0  0  0
 14 35  1  0  0  0  0
 15 17  1  0  0  0  0
 15 36  1  0  0  0  0
 16 18  1  0  0  0  0
 16 37  1  0  0  0  0
 16 38  1  0  0  0  0
 17 19  1  0  0  0  0
 17 39  1  0  0  0  0
 18 19  2  0  0  0  0
 18 20  1  0  0  0  0
 19 40  1  0  0  0  0
 21 22  1  0  0  0  0
 22 23  1  0  0  0  0
 22 24  2  0  0  0  0
 23 25  2  0  0  0  0
 23 43  1  0  0  0  0
 24 26  1  0  0  0  0
 24 44  1  0  0  0  0
 25 27  1  0  0  0  0
 26 27  2  0  0  0  0
 28 29  1  0  0  0  0
 28 30  2  0  0  0  0
 28 31  1  0  0  0  0
 30 33  1  0  0  0  0
 30 47  1  0  0  0  0
 31 32  2  0  0  0  0
 31 48  1  0  0  0  0
 32 34  1  0  0  0  0
 33 34  2  0  0  0  0
M  END
> <PUBCHEM_COMPOUND_CID>
475266

> <PUBCHEM_CONFORMER_RMSD>
1.2

> <PUBCHEM_CONFORMER_DIVERSEORDER>
1
63
350
282
200
480
386
216
112
82
442
398
94
180
338
225
153
120
504
403
42
412
519
255
125
22
459
289
285
173
368
388
148
206
169
96
109
239
13
291
54
246
32
485
281
214
165
87
411
51
287
468
55
187
85
29
395
131
59
507
75
420
108
424
363
15
278
387
269
95
4
150
435
182
212
327
185
99
483
117
365
137
79
34
163
495
323
45
518
16
244
260
208
138
230
457
189
68
433
155
416
204
67
313
20
198
408
107
70
479
211
127
489
3
5
431
103
154
61
161
353
316
340
415
53
492
2
235
243
152
172
6
221
160
166
337
35
511
309
84
336
14
81
142
237
513
197
174
184
121
49
62
26
52
50

> <PUBCHEM_MMFF94_PARTIAL_CHARGES>
47
1 -0.43
10 -0.57
11 -0.53
12 -0.53
13 -0.53
14 0.28
15 0.28
16 0.14
17 0.42
18 -0.12
19 -0.29
2 -0.68
20 0.71
21 0.63
22 0.09
23 -0.15
24 -0.15
25 0.08
26 0.08
27 0.08
28 0.09
29 0.63
3 -0.68
30 -0.15
31 -0.15
32 0.08
33 0.08
34 0.08
4 -0.65
40 0.15
41 0.4
42 0.4
43 0.15
44 0.15
45 0.5
46 0.45
47 0.15
48 0.15
49 0.45
5 -0.57
50 0.45
51 0.45
52 0.45
6 -0.57
7 -0.23
8 -0.53
9 -0.53

> <PUBCHEM_EFFECTIVE_ROTOR_COUNT>
7.8

> <PUBCHEM_PHARMACOPHORE_FEATURES>
17
1 10 acceptor
1 11 donor
1 12 donor
1 13 donor
1 2 acceptor
1 2 donor
1 3 acceptor
1 3 donor
1 4 acceptor
1 5 acceptor
1 6 acceptor
1 8 donor
1 9 donor
3 4 5 20 anion
6 14 15 16 17 18 19 rings
6 22 23 24 25 26 27 rings
6 28 30 31 32 33 34 rings

> <PUBCHEM_HEAVY_ATOM_COUNT>
34

> <PUBCHEM_ATOM_DEF_STEREO_COUNT>
3

> <PUBCHEM_ATOM_UDEF_STEREO_COUNT>
0

> <PUBCHEM_BOND_DEF_STEREO_COUNT>
0

> <PUBCHEM_BOND_UDEF_STEREO_COUNT>
0

> <PUBCHEM_ISOTOPIC_ATOM_COUNT>
0

> <PUBCHEM_COMPONENT_COUNT>
1

> <PUBCHEM_CACTVS_TAUTO_COUNT>
168

> <PUBCHEM_CONFORMER_ID>
0007408200000001

> <PUBCHEM_MMFF94_ENERGY>
100.7004

> <PUBCHEM_FEATURE_SELFOVERLAP>
86.357

> <PUBCHEM_SHAPE_FINGERPRINT>
10439779 11 18338220631724887912
10483366 6 18268164063345909198
10673678 19 18342458153780192547
11720765 8 18059026012513692084
11966995 178 18271536291299382265
12422481 6 17603580795059090143
12925494 130 18192141600150438669
13583140 156 17169808008751957651
13617811 41 17618766399369715915
13835254 42 17545886391798220838
13944108 23 18263930925634535908
1454969 45 18340203103251900295
14790565 3 18340205314489923827
15082195 135 18194938800780387909
151778 21 18409722967557517161
15183329 4 11167943550671194379
16988056 13 18053098419845956590
16992727 255 18188504579200027124
20465049 17 18337122198054391766
20567600 9 18270409278035349001
21458453 9 18116449213975579107
21716022 299 14762966047179375638
23559900 14 17907292157786930555
245318 6 18042133205236214493
3298306 158 18411138026432949085
3493558 16 17982450391600014121
4066623 53 17912095958511577206
508180 173 18338251448378844224
5109719 28 18263089817209830345
513532 50 18201721717855538230
5252454 2 18114741646241364556
5776283 40 18193578842299599972
5951187 136 18272940435808061324
653340 110 17547559839916187848

> <PUBCHEM_SHAPE_MULTIPOLES>
623.4
14.34
6.07
1.42
18.94
0.68
-0.25
-12.56
1.76
-3.22
-1.01
-1.38
0.09
0.03

> <PUBCHEM_SHAPE_SELFOVERLAP>
1365.475

> <PUBCHEM_SHAPE_VOLUME>
332

> <PUBCHEM_COORDINATE_TYPE>
2
5
10

$$$$
