16007116
  -OEChem-10062121593D

 43 44  0     0  0  0  0  0  0999 V2000
   -5.9524    0.1811   -1.7327 Cl  0  0  0  0  0  0  0  0  0  0  0  0
    5.7129    0.2464   -1.2033 S   0  0  0  0  0  0  0  0  0  0  0  0
    6.4342    1.4527   -0.8230 O   0  0  0  0  0  0  0  0  0  0  0  0
    6.4118   -1.0309   -1.2438 O   0  0  0  0  0  0  0  0  0  0  0  0
   -4.0601    1.9863   -0.3181 O   0  0  0  0  0  0  0  0  0  0  0  0
   -0.5891   -2.3892    1.1932 O   0  0  0  0  0  0  0  0  0  0  0  0
   -0.3272   -0.1385    1.6885 N   0  0  0  0  0  0  0  0  0  0  0  0
   -2.5695    0.3709    0.3767 N   0  0  0  0  0  0  0  0  0  0  0  0
   -4.8654   -2.6431   -1.4531 N   0  0  0  0  0  0  0  0  0  0  0  0
    2.1028   -0.1394    1.5152 C   0  0  0  0  0  0  0  0  0  0  0  0
    4.3234    0.0981   -0.1566 C   0  0  0  0  0  0  0  0  0  0  0  0
    0.9149   -0.2664    2.4078 C   0  0  0  0  0  0  0  0  0  0  0  0
    2.6436   -1.2731    0.9086 C   0  0  0  0  0  0  0  0  0  0  0  0
    2.6722    1.1130    1.2859 C   0  0  0  0  0  0  0  0  0  0  0  0
    3.7540   -1.1544    0.0728 C   0  0  0  0  0  0  0  0  0  0  0  0
    3.7826    1.2317    0.4499 C   0  0  0  0  0  0  0  0  0  0  0  0
    5.0215    0.5100   -2.8206 C   0  0  0  0  0  0  0  0  0  0  0  0
   -0.9844   -1.2278    1.1333 C   0  0  0  0  0  0  0  0  0  0  0  0
   -2.2407   -0.9259    0.3999 C   0  0  0  0  0  0  0  0  0  0  0  0
   -2.9405   -1.9540   -0.1729 C   0  0  0  0  0  0  0  0  0  0  0  0
   -4.1094   -1.6159   -0.8460 C   0  0  0  0  0  0  0  0  0  0  0  0
   -3.7114    0.6612   -0.2863 C   0  0  0  0  0  0  0  0  0  0  0  0
   -4.5092   -0.2857   -0.9084 C   0  0  0  0  0  0  0  0  0  0  0  0
   -3.1876    2.8935    0.3446 C   0  0  0  0  0  0  0  0  0  0  0  0
   -3.7270    4.2993    0.1886 C   0  0  0  0  0  0  0  0  0  0  0  0
    0.9270    0.5128    3.1786 H   0  0  0  0  0  0  0  0  0  0  0  0
    0.9335   -1.2272    2.9363 H   0  0  0  0  0  0  0  0  0  0  0  0
    2.2124   -2.2557    1.0794 H   0  0  0  0  0  0  0  0  0  0  0  0
    2.2579    2.0044    1.7495 H   0  0  0  0  0  0  0  0  0  0  0  0
    4.1554   -2.0495   -0.3938 H   0  0  0  0  0  0  0  0  0  0  0  0
    4.2048    2.2180    0.2795 H   0  0  0  0  0  0  0  0  0  0  0  0
   -0.7188    0.7917    1.5704 H   0  0  0  0  0  0  0  0  0  0  0  0
    4.4083   -0.3520   -3.0898 H   0  0  0  0  0  0  0  0  0  0  0  0
    5.8463    0.6162   -3.5285 H   0  0  0  0  0  0  0  0  0  0  0  0
    4.4235    1.4232   -2.8065 H   0  0  0  0  0  0  0  0  0  0  0  0
   -2.6157   -2.9872   -0.1151 H   0  0  0  0  0  0  0  0  0  0  0  0
   -2.1850    2.8479   -0.0975 H   0  0  0  0  0  0  0  0  0  0  0  0
   -3.1293    2.6509    1.4126 H   0  0  0  0  0  0  0  0  0  0  0  0
   -4.5569   -3.6043   -1.3950 H   0  0  0  0  0  0  0  0  0  0  0  0
   -5.7184   -2.4138   -1.9459 H   0  0  0  0  0  0  0  0  0  0  0  0
   -3.0788    5.0250    0.6878 H   0  0  0  0  0  0  0  0  0  0  0  0
   -3.8067    4.5665   -0.8703 H   0  0  0  0  0  0  0  0  0  0  0  0
   -4.7341    4.3751    0.6122 H   0  0  0  0  0  0  0  0  0  0  0  0
  1 23  1  0  0  0  0
  2  3  2  0  0  0  0
  2  4  2  0  0  0  0
  2 11  1  0  0  0  0
  2 17  1  0  0  0  0
  5 22  1  0  0  0  0
  5 24  1  0  0  0  0
  6 18  2  0  0  0  0
  7 12  1  0  0  0  0
  7 18  1  0  0  0  0
  7 32  1  0  0  0  0
  8 19  2  0  0  0  0
  8 22  1  0  0  0  0
  9 21  1  0  0  0  0
  9 39  1  0  0  0  0
  9 40  1  0  0  0  0
 10 12  1  0  0  0  0
 10 13  2  0  0  0  0
 10 14  1  0  0  0  0
 11 15  2  0  0  0  0
 11 16  1  0  0  0  0
 12 26  1  0  0  0  0
 12 27  1  0  0  0  0
 13 15  1  0  0  0  0
 13 28  1  0  0  0  0
 14 16  2  0  0  0  0
 14 29  1  0  0  0  0
 15 30  1  0  0  0  0
 16 31  1  0  0  0  0
 17 33  1  0  0  0  0
 17 34  1  0  0  0  0
 17 35  1  0  0  0  0
 18 19  1  0  0  0  0
 19 20  1  0  0  0  0
 20 21  2  0  0  0  0
 20 36  1  0  0  0  0
 21 23  1  0  0  0  0
 22 23  2  0  0  0  0
 24 25  1  0  0  0  0
 24 37  1  0  0  0  0
 24 38  1  0  0  0  0
 25 41  1  0  0  0  0
 25 42  1  0  0  0  0
 25 43  1  0  0  0  0
M  END
> <PUBCHEM_COMPOUND_CID>
16007116

> <PUBCHEM_CONFORMER_RMSD>
0.8

> <PUBCHEM_CONFORMER_DIVERSEORDER>
1
67
93
6
42
61
21
84
59
49
64
114
7
109
110
92
71
30
5
57
66
106
28
39
23
105
11
100
85
107
37
77
115
98
31
118
27
19
43
70
72
14
48
32
103
25
40
47
9
56
36
86
97
26
82
99
18
55
51
60
104
113
52
8
88
62
112
3
13
73
17
22
111
45
33
34
83
20
79
108
58
101
63
2
78
29
81
50
68
76
117
4
12
65
94
95
10
74
102
16
46
53
89
41
54
80
91
35
15
87
116
90
75
38
24
44
69
96

> <PUBCHEM_MMFF94_PARTIAL_CHARGES>
32
1 -0.18
10 -0.14
11 -0.01
12 0.44
13 -0.15
14 -0.15
15 -0.15
16 -0.15
17 0.11
18 0.54
19 0.4
2 1.2
20 -0.15
21 0.1
22 0.39
23 0.18
24 0.28
28 0.15
29 0.15
3 -0.65
30 0.15
31 0.15
32 0.37
36 0.15
39 0.4
4 -0.65
40 0.4
5 -0.36
6 -0.57
7 -0.73
8 -0.62
9 -0.9

> <PUBCHEM_EFFECTIVE_ROTOR_COUNT>
7

> <PUBCHEM_PHARMACOPHORE_FEATURES>
10
1 3 acceptor
1 4 acceptor
1 5 acceptor
1 6 acceptor
1 7 donor
1 8 acceptor
1 9 cation
1 9 donor
6 10 11 13 14 15 16 rings
6 8 19 20 21 22 23 rings

> <PUBCHEM_HEAVY_ATOM_COUNT>
25

> <PUBCHEM_ATOM_DEF_STEREO_COUNT>
0

> <PUBCHEM_ATOM_UDEF_STEREO_COUNT>
0

> <PUBCHEM_BOND_DEF_STEREO_COUNT>
0

> <PUBCHEM_BOND_UDEF_STEREO_COUNT>
0

> <PUBCHEM_ISOTOPIC_ATOM_COUNT>
0

> <PUBCHEM_COMPONENT_COUNT>
1

> <PUBCHEM_CACTVS_TAUTO_COUNT>
4

> <PUBCHEM_CONFORMER_ID>
00F43FCC00000001

> <PUBCHEM_MMFF94_ENERGY>
62.549

> <PUBCHEM_FEATURE_SELFOVERLAP>
50.815

> <PUBCHEM_SHAPE_FINGERPRINT>
10498660 4 18263342794561268329
10670039 82 18334854978802107756
10871710 139 18187923933501304133
11049842 53 18051394185434379659
12954195 1 18130784530450621177
13690498 29 18130506422164034599
13782708 43 16916492779285766799
14187579 7 18410298050910341104
14251757 5 18270965635156553153
14341114 328 9655577443894842218
14840074 17 17240485771594450797
14848178 5 16200161963154223310
14910302 57 17631717379044357919
15003188 33 18338800005485477530
15163728 17 18263372399312156691
15183329 4 18411700959406974138
15188451 53 11455888079332085055
15348495 7 11097855207506786548
15575132 122 17969492728924143245
16994733 274 15575532697792111431
17870717 6 18059855082429312375
1813 80 13829854672401846403
19377110 9 11167930373632727410
193927 3 15984831458091479338
20645477 70 16271633568569891762
21033648 29 13407077046191597444
21033650 10 18411984641606485632
21315763 76 17023179474622863900
22122407 14 15936683762349040285
221357 26 18272926141882353169
22393880 68 18201998828860554730
23198884 109 18334297569614701246
23559900 14 18200584921126145921
2838139 119 17748824129378275164
312425 54 9007068946056113772
314194 84 14549017693738228018
3472631 163 16950562207401917398
351380 3 13614527380670490716
3610482 184 18262252035533886341
38570 142 17823431396048980440
392239 28 9223221945186132398
46194498 28 17774437308450484216
474 4 17167859759703317579
59682541 52 18410570657243465206
633830 44 17532375270471095011
6608658 132 18187359892257119749
7970288 3 14979955908203213271

> <PUBCHEM_SHAPE_MULTIPOLES>
481.79
15.67
3.03
2.03
10.32
2.85
-0.39
2.4
-11.58
-5.46
0.15
1.82
-0.24
-1.27

> <PUBCHEM_SHAPE_SELFOVERLAP>
996.151

> <PUBCHEM_SHAPE_VOLUME>
277.9

> <PUBCHEM_COORDINATE_TYPE>
2
5
10

$$$$
