49830875
  -OEChem-10052115183D

 43 46  0     1  0  0  0  0  0999 V2000
   -3.8012    2.2277   -0.2918 S   0  0  0  0  0  0  0  0  0  0  0  0
    1.4162    1.6465   -0.3183 F   0  0  0  0  0  0  0  0  0  0  0  0
    2.3926   -2.9319    0.1994 F   0  0  0  0  0  0  0  0  0  0  0  0
   -2.6138   -2.7092    0.3514 O   0  0  0  0  0  0  0  0  0  0  0  0
   -5.0065   -1.5964   -0.8782 O   0  0  0  0  0  0  0  0  0  0  0  0
   -5.4508   -0.2958    0.9498 O   0  0  0  0  0  0  0  0  0  0  0  0
    3.2438   -0.3304   -0.1437 N   0  0  3  0  0  0  0  0  0  0  0  0
   -1.4098    1.1185   -0.1641 N   0  0  0  0  0  0  0  0  0  0  0  0
    6.2968    1.4058    0.8110 N   0  0  0  0  0  0  0  0  0  0  0  0
    5.4247    0.2937    0.4758 C   0  0  1  0  0  0  0  0  0  0  0  0
    3.9458    0.5629    0.7779 C   0  0  0  0  0  0  0  0  0  0  0  0
    5.4083   -0.0222   -1.0158 C   0  0  0  0  0  0  0  0  0  0  0  0
    4.1424   -0.8664   -1.1653 C   0  0  0  0  0  0  0  0  0  0  0  0
   -1.1112    2.5601   -0.2458 C   0  0  1  0  0  0  0  0  0  0  0  0
    1.9000   -0.6260   -0.0636 C   0  0  0  0  0  0  0  0  0  0  0  0
   -0.4237    0.1316   -0.0759 C   0  0  0  0  0  0  0  0  0  0  0  0
   -2.7677    0.8073   -0.1077 C   0  0  0  0  0  0  0  0  0  0  0  0
   -2.3715    3.2324   -0.8323 C   0  0  0  0  0  0  0  0  0  0  0  0
    0.9527    0.3987   -0.1557 C   0  0  0  0  0  0  0  0  0  0  0  0
   -0.8116   -1.2111    0.0954 C   0  0  0  0  0  0  0  0  0  0  0  0
    1.4916   -1.9436    0.1087 C   0  0  0  0  0  0  0  0  0  0  0  0
   -3.2520   -0.4398    0.0583 C   0  0  0  0  0  0  0  0  0  0  0  0
   -0.7838    3.1263    1.1396 C   0  0  0  0  0  0  0  0  0  0  0  0
    0.1349   -2.2409    0.1883 C   0  0  0  0  0  0  0  0  0  0  0  0
   -2.2542   -1.5492    0.1833 C   0  0  0  0  0  0  0  0  0  0  0  0
   -4.6921   -0.7486    0.1195 C   0  0  0  0  0  0  0  0  0  0  0  0
    5.7492   -0.5982    1.0279 H   0  0  0  0  0  0  0  0  0  0  0  0
    3.7102    0.3417    1.8248 H   0  0  0  0  0  0  0  0  0  0  0  0
    3.6794    1.6053    0.5676 H   0  0  0  0  0  0  0  0  0  0  0  0
    6.3042   -0.5525   -1.3528 H   0  0  0  0  0  0  0  0  0  0  0  0
    5.3119    0.8962   -1.6094 H   0  0  0  0  0  0  0  0  0  0  0  0
    3.7233   -0.7715   -2.1724 H   0  0  0  0  0  0  0  0  0  0  0  0
    4.3611   -1.9211   -0.9658 H   0  0  0  0  0  0  0  0  0  0  0  0
   -0.2936    2.7780   -0.9406 H   0  0  0  0  0  0  0  0  0  0  0  0
   -2.4834    4.2767   -0.5267 H   0  0  0  0  0  0  0  0  0  0  0  0
   -2.3410    3.1930   -1.9269 H   0  0  0  0  0  0  0  0  0  0  0  0
   -1.6016    2.9647    1.8503 H   0  0  0  0  0  0  0  0  0  0  0  0
   -0.5968    4.2036    1.0796 H   0  0  0  0  0  0  0  0  0  0  0  0
    0.1093    2.6572    1.5638 H   0  0  0  0  0  0  0  0  0  0  0  0
    7.2613    1.1672    0.5852 H   0  0  0  0  0  0  0  0  0  0  0  0
    6.2664    1.5760    1.8151 H   0  0  0  0  0  0  0  0  0  0  0  0
   -0.1664   -3.2761    0.3220 H   0  0  0  0  0  0  0  0  0  0  0  0
   -5.9589   -1.8315   -0.8772 H   0  0  0  0  0  0  0  0  0  0  0  0
  1 17  1  0  0  0  0
  1 18  1  0  0  0  0
  2 19  1  0  0  0  0
  3 21  1  0  0  0  0
  4 25  2  0  0  0  0
  5 26  1  0  0  0  0
  5 43  1  0  0  0  0
  6 26  2  0  0  0  0
  7 11  1  0  0  0  0
  7 13  1  0  0  0  0
  7 15  1  0  0  0  0
  8 14  1  0  0  0  0
  8 16  1  0  0  0  0
  8 17  1  0  0  0  0
  9 10  1  0  0  0  0
  9 40  1  0  0  0  0
  9 41  1  0  0  0  0
 10 11  1  0  0  0  0
 10 12  1  0  0  0  0
 10 27  1  0  0  0  0
 11 28  1  0  0  0  0
 11 29  1  0  0  0  0
 12 13  1  0  0  0  0
 12 30  1  0  0  0  0
 12 31  1  0  0  0  0
 13 32  1  0  0  0  0
 13 33  1  0  0  0  0
 14 18  1  0  0  0  0
 14 23  1  0  0  0  0
 14 34  1  0  0  0  0
 15 19  1  0  0  0  0
 15 21  2  0  0  0  0
 16 19  2  0  0  0  0
 16 20  1  0  0  0  0
 17 22  2  0  0  0  0
 18 35  1  0  0  0  0
 18 36  1  0  0  0  0
 20 24  2  0  0  0  0
 20 25  1  0  0  0  0
 21 24  1  0  0  0  0
 22 25  1  0  0  0  0
 22 26  1  0  0  0  0
 23 37  1  0  0  0  0
 23 38  1  0  0  0  0
 23 39  1  0  0  0  0
 24 42  1  0  0  0  0
M  END
> <PUBCHEM_COMPOUND_CID>
49830875

> <PUBCHEM_CONFORMER_RMSD>
0.8

> <PUBCHEM_CONFORMER_DIVERSEORDER>
2
1
4
3

> <PUBCHEM_MMFF94_PARTIAL_CHARGES>
28
1 -0.33
10 0.27
11 0.37
13 0.37
14 0.37
15 0.1
16 0.1
17 0.2
18 0.23
19 0.19
2 -0.19
20 0.09
21 0.19
22 0.03
24 -0.15
25 0.47
26 0.71
3 -0.19
4 -0.57
40 0.36
41 0.36
42 0.15
43 0.5
5 -0.65
6 -0.57
7 -0.84
8 -0.57
9 -0.99

> <PUBCHEM_EFFECTIVE_ROTOR_COUNT>
3.6

> <PUBCHEM_PHARMACOPHORE_FEATURES>
12
1 4 acceptor
1 5 acceptor
1 6 acceptor
1 7 cation
1 8 cation
1 9 cation
1 9 donor
3 5 6 26 anion
5 1 8 14 17 18 rings
5 7 10 11 12 13 rings
6 15 16 19 20 21 24 rings
6 8 16 17 20 22 25 rings

> <PUBCHEM_HEAVY_ATOM_COUNT>
26

> <PUBCHEM_ATOM_DEF_STEREO_COUNT>
0

> <PUBCHEM_ATOM_UDEF_STEREO_COUNT>
2

> <PUBCHEM_BOND_DEF_STEREO_COUNT>
0

> <PUBCHEM_BOND_UDEF_STEREO_COUNT>
0

> <PUBCHEM_ISOTOPIC_ATOM_COUNT>
0

> <PUBCHEM_COMPONENT_COUNT>
1

> <PUBCHEM_CACTVS_TAUTO_COUNT>
1

> <PUBCHEM_CONFORMER_ID>
02F85BDB00000002

> <PUBCHEM_MMFF94_ENERGY>
91.2942

> <PUBCHEM_FEATURE_SELFOVERLAP>
61.037

> <PUBCHEM_SHAPE_FINGERPRINT>
10319926 262 18339060624702003082
10411042 1 17976541933591980043
10498660 4 18338797810646341468
10670039 82 18188505592479324092
10906281 52 18263100922945315242
10967382 1 18409450323439677319
1100329 8 18264773344756223043
11112241 14 16699740584345295752
11595378 159 17968361391208538296
11646440 116 18340499962030780331
12107183 9 17611452044273407578
12236239 1 17385722495990173856
12390115 104 18270131097314710057
12403259 415 18272366469363641920
12553582 1 18409442614089536011
12788726 201 18261386728704486907
12838862 33 18337092524320730173
13140716 1 18192153917292756163
13402501 40 18271520992098041824
13862211 1 18409163341887872139
14081887 123 18340759352048297296
14765038 42 18129117649116383881
14787075 74 18410011073852742000
14790565 3 18337681913486502028
15131766 46 15194136422966926360
15196674 1 18337110047022393839
16087824 20 18410008807624227765
16945 1 18335140886464350391
17349148 13 17821737117392154588
17492 89 18192149300446389515
17980427 23 17603598408240325973
19591789 44 18267022941098594113
20510252 161 18339924801500997961
21033648 29 17846203467403135576
21236236 1 18410855438685162284
21267235 1 18337401525584676231
21279426 13 18268149756456060790
21315764 268 18409439307202354776
21641784 216 18041857137449100797
22122407 14 15213311819676632806
22393880 68 18194126222563516958
2297311 6 18341907285316606004
23366157 5 17752209375267418314
23402539 116 18413384354584802503
23557571 272 18342468014608346612
23559900 14 18339354270535277241
23566358 2 18267869388937412319
23569914 152 17047661986284452719
23569914 2 16196733590829595392
2748010 2 17687748655273890115
283562 15 18410292489027062337
335352 9 18409730699363540623
34934 24 18410851070972889267
350125 39 18409171034100719164
392239 28 18343304768600748848
469060 322 18261973880888844065
5104073 3 18263084310064614595
5486654 2 18408609183653280703
59755656 215 18410292493132261975
9709674 26 18338803320857481710
9981440 41 18187366497700290226

> <PUBCHEM_SHAPE_MULTIPOLES>
491.82
11.38
3.32
0.9
9.37
1.03
-0.03
0.48
0.08
-2.5
0.16
0.34
0.23
0.72

> <PUBCHEM_SHAPE_SELFOVERLAP>
1070.839

> <PUBCHEM_SHAPE_VOLUME>
272.9

> <PUBCHEM_COORDINATE_TYPE>
2
5
10

$$$$
