60155724
  -OEChem-10052120443D

 47 49  0     0  0  0  0  0  0999 V2000
    2.7936    3.9199    1.1288 Cl  0  0  0  0  0  0  0  0  0  0  0  0
    2.6000    1.6048   -1.1218 S   0  0  0  0  0  0  0  0  0  0  0  0
    4.1682   -3.9914   -0.4846 F   0  0  0  0  0  0  0  0  0  0  0  0
    2.1348    0.6316   -2.1003 O   0  0  0  0  0  0  0  0  0  0  0  0
    3.3241    2.7804   -1.5833 O   0  0  0  0  0  0  0  0  0  0  0  0
   -4.7712   -2.6252    0.4625 O   0  0  0  0  0  0  0  0  0  0  0  0
    3.5343    0.7743    0.0620 N   0  0  0  0  0  0  0  0  0  0  0  0
   -2.4874   -0.0381    0.1683 N   0  0  0  0  0  0  0  0  0  0  0  0
   -4.7117    1.4231   -0.7172 N   0  0  0  0  0  0  0  0  0  0  0  0
   -5.9827   -0.5838   -0.7662 N   0  0  0  0  0  0  0  0  0  0  0  0
   -2.5163   -2.7673   -0.0589 N   0  0  0  0  0  0  0  0  0  0  0  0
    1.2060    2.1379   -0.2037 C   0  0  0  0  0  0  0  0  0  0  0  0
   -1.1589    1.9234    0.2410 C   0  0  0  0  0  0  0  0  0  0  0  0
    3.1882   -0.5879    0.3670 C   0  0  0  0  0  0  0  0  0  0  0  0
   -0.0222    1.5310   -0.4658 C   0  0  0  0  0  0  0  0  0  0  0  0
    1.2976    3.1371    0.7653 C   0  0  0  0  0  0  0  0  0  0  0  0
    3.8699   -1.6496   -0.2278 C   0  0  0  0  0  0  0  0  0  0  0  0
   -1.0672    2.9225    1.2101 C   0  0  0  0  0  0  0  0  0  0  0  0
   -2.4332    1.2939   -0.0302 C   0  0  0  0  0  0  0  0  0  0  0  0
    0.1609    3.5294    1.4723 C   0  0  0  0  0  0  0  0  0  0  0  0
    2.1559   -0.8405    1.2706 C   0  0  0  0  0  0  0  0  0  0  0  0
    3.5193   -2.9638    0.0809 C   0  0  0  0  0  0  0  0  0  0  0  0
    4.9792   -1.4029   -1.1980 C   0  0  0  0  0  0  0  0  0  0  0  0
    1.8053   -2.1548    1.5791 C   0  0  0  0  0  0  0  0  0  0  0  0
    2.4869   -3.2165    0.9842 C   0  0  0  0  0  0  0  0  0  0  0  0
   -3.5258    2.0115   -0.4650 C   0  0  0  0  0  0  0  0  0  0  0  0
   -3.6734   -0.6266   -0.0841 C   0  0  0  0  0  0  0  0  0  0  0  0
   -4.7659    0.0910   -0.5189 C   0  0  0  0  0  0  0  0  0  0  0  0
   -3.7105   -2.0642    0.1363 C   0  0  0  0  0  0  0  0  0  0  0  0
   -2.3978   -4.1992    0.0975 C   0  0  0  0  0  0  0  0  0  0  0  0
    3.7291    1.3234    0.9107 H   0  0  0  0  0  0  0  0  0  0  0  0
   -0.1132    0.7507   -1.2171 H   0  0  0  0  0  0  0  0  0  0  0  0
   -1.9404    3.2390    1.7759 H   0  0  0  0  0  0  0  0  0  0  0  0
    0.2150    4.3055    2.2317 H   0  0  0  0  0  0  0  0  0  0  0  0
    1.6246   -0.0270    1.7561 H   0  0  0  0  0  0  0  0  0  0  0  0
    5.7098   -0.7016   -0.7808 H   0  0  0  0  0  0  0  0  0  0  0  0
    5.5260   -2.3200   -1.4410 H   0  0  0  0  0  0  0  0  0  0  0  0
    4.5827   -0.9952   -2.1332 H   0  0  0  0  0  0  0  0  0  0  0  0
    1.0030   -2.3516    2.2842 H   0  0  0  0  0  0  0  0  0  0  0  0
    2.2140   -4.2398    1.2246 H   0  0  0  0  0  0  0  0  0  0  0  0
   -3.4963    3.0822   -0.6333 H   0  0  0  0  0  0  0  0  0  0  0  0
   -5.9501   -1.5467   -1.0773 H   0  0  0  0  0  0  0  0  0  0  0  0
   -6.7610   -0.0165   -1.0796 H   0  0  0  0  0  0  0  0  0  0  0  0
   -1.6781   -2.2486   -0.3056 H   0  0  0  0  0  0  0  0  0  0  0  0
   -3.3630   -4.6875   -0.0567 H   0  0  0  0  0  0  0  0  0  0  0  0
   -1.6714   -4.5669   -0.6309 H   0  0  0  0  0  0  0  0  0  0  0  0
   -2.0384   -4.4039    1.1089 H   0  0  0  0  0  0  0  0  0  0  0  0
  1 16  1  0  0  0  0
  2  4  2  0  0  0  0
  2  5  2  0  0  0  0
  2  7  1  0  0  0  0
  2 12  1  0  0  0  0
  3 22  1  0  0  0  0
  6 29  2  0  0  0  0
  7 14  1  0  0  0  0
  7 31  1  0  0  0  0
  8 19  1  0  0  0  0
  8 27  2  0  0  0  0
  9 26  1  0  0  0  0
  9 28  2  0  0  0  0
 10 28  1  0  0  0  0
 10 42  1  0  0  0  0
 10 43  1  0  0  0  0
 11 29  1  0  0  0  0
 11 30  1  0  0  0  0
 11 44  1  0  0  0  0
 12 15  1  0  0  0  0
 12 16  2  0  0  0  0
 13 15  2  0  0  0  0
 13 18  1  0  0  0  0
 13 19  1  0  0  0  0
 14 17  2  0  0  0  0
 14 21  1  0  0  0  0
 15 32  1  0  0  0  0
 16 20  1  0  0  0  0
 17 22  1  0  0  0  0
 17 23  1  0  0  0  0
 18 20  2  0  0  0  0
 18 33  1  0  0  0  0
 19 26  2  0  0  0  0
 20 34  1  0  0  0  0
 21 24  2  0  0  0  0
 21 35  1  0  0  0  0
 22 25  2  0  0  0  0
 23 36  1  0  0  0  0
 23 37  1  0  0  0  0
 23 38  1  0  0  0  0
 24 25  1  0  0  0  0
 24 39  1  0  0  0  0
 25 40  1  0  0  0  0
 26 41  1  0  0  0  0
 27 28  1  0  0  0  0
 27 29  1  0  0  0  0
 30 45  1  0  0  0  0
 30 46  1  0  0  0  0
 30 47  1  0  0  0  0
M  END
> <PUBCHEM_COMPOUND_CID>
60155724

> <PUBCHEM_CONFORMER_RMSD>
1

> <PUBCHEM_CONFORMER_DIVERSEORDER>
2
152
15
110
177
169
150
86
123
31
191
121
103
160
73
138
146
83
71
129
159
130
118
171
84
111
50
25
156
22
147
189
95
116
7
70
40
65
96
170
59
148
101
157
45
140
187
161
41
43
97
174
164
4
119
8
54
112
149
134
186
180
142
18
19
76
89
109
39
188
82
124
128
195
52
27
117
102
67
48
184
126
68
88
179
196
108
23
181
14
106
75
30
81
193
11
154
137
57
139
53
151
135
16
80
158
9
168
105
163
58
78
153
99
167
145
165
182
38
3
90
55
192
143
155
33
173
100
162
42
176
36
56
10
66
175
26
46
74
190
29
115
125
49
44
136
172
183
17
144
21
60
120
104
51
13
131
133
178
28
166
69
122
132
37
114
64
32
127
79
61
20
72
34
98
5
94
85
77
87
35
113
47
12
194
141
62
93
1
185
6
107
63
24
92
91

> <PUBCHEM_MMFF94_PARTIAL_CHARGES>
40
1 -0.18
10 -0.9
11 -0.73
12 -0.01
14 0.2
15 -0.15
16 0.18
17 -0.14
18 -0.15
19 0.31
2 1.45
20 -0.15
21 -0.15
22 0.19
23 0.14
24 -0.15
25 -0.15
26 0.16
27 0.4
28 0.41
29 0.54
3 -0.19
30 0.3
31 0.42
32 0.15
33 0.15
34 0.15
35 0.15
39 0.15
4 -0.65
40 0.15
41 0.15
42 0.4
43 0.4
44 0.37
5 -0.65
6 -0.57
7 -0.76
8 -0.62
9 -0.62

> <PUBCHEM_EFFECTIVE_ROTOR_COUNT>
6

> <PUBCHEM_PHARMACOPHORE_FEATURES>
11
1 10 donor
1 11 donor
1 4 acceptor
1 5 acceptor
1 6 acceptor
1 7 donor
1 8 acceptor
3 9 10 28 cation
6 12 13 15 16 18 20 rings
6 14 17 21 22 24 25 rings
6 8 9 19 26 27 28 rings

> <PUBCHEM_HEAVY_ATOM_COUNT>
30

> <PUBCHEM_ATOM_DEF_STEREO_COUNT>
0

> <PUBCHEM_ATOM_UDEF_STEREO_COUNT>
0

> <PUBCHEM_BOND_DEF_STEREO_COUNT>
0

> <PUBCHEM_BOND_UDEF_STEREO_COUNT>
0

> <PUBCHEM_ISOTOPIC_ATOM_COUNT>
0

> <PUBCHEM_COMPONENT_COUNT>
1

> <PUBCHEM_CACTVS_TAUTO_COUNT>
7

> <PUBCHEM_CONFORMER_ID>
0395E74C00000002

> <PUBCHEM_MMFF94_ENERGY>
88.2313

> <PUBCHEM_FEATURE_SELFOVERLAP>
55.84

> <PUBCHEM_SHAPE_FINGERPRINT>
1100329 8 18195810665924588985
11315621 136 18261398866356093366
12788726 201 18126284134230621441
13533116 47 18410851092953550069
13583140 156 18270390728420192837
14117953 113 17253697288407069567
14251757 5 18264491685101232327
14866123 147 17839463285242673649
14931854 50 18261395490301140238
15968369 26 18120358015591457641
17909252 39 18412268371377664450
17921350 177 18059016214691080854
20028762 73 16973361947004094679
20764821 26 16389312412357903815
20775438 99 18124287636275038351
20775530 9 18265045830250319274
21033648 29 14907899315425850105
23559900 14 18339913844870828585
238918 7 17620189180073639544
25222932 49 18057597870539954021
3004659 81 18333729087564022269
325973 47 18412263909065581063
354706 132 17095249128513013270
3737641 26 18192165999494812891
4280585 95 18116424839782901050
46194498 28 17530966886333693133
463206 1 18409171025536599963
474144 1 17389368338782691043
6433294 58 18338514265347460835
6669772 16 17984418809656261480
6823239 73 18413100663167629498

> <PUBCHEM_SHAPE_MULTIPOLES>
573.32
10.43
5.9
1.34
8.32
1.45
-0.1
6.58
-2.94
-2.77
1.69
-1.14
-0.53
0.1

> <PUBCHEM_SHAPE_SELFOVERLAP>
1223.572

> <PUBCHEM_SHAPE_VOLUME>
322.6

> <PUBCHEM_COORDINATE_TYPE>
2
5
10

$$$$
