49830708
  -OEChem-10052115193D

 41 43  0     1  0  0  0  0  0999 V2000
   -2.6595   -1.2975    0.1571 S   0  0  0  0  0  0  0  0  0  0  0  0
    5.5322    2.2115   -0.8998 O   0  0  0  0  0  0  0  0  0  0  0  0
   -0.0456   -2.7261    0.1455 O   0  0  0  0  0  0  0  0  0  0  0  0
    1.3091   -0.8997   -0.3039 N   0  0  0  0  0  0  0  0  0  0  0  0
   -2.4721    1.2341   -0.3313 N   0  0  0  0  0  0  0  0  0  0  0  0
   -7.5233    0.7546    0.2533 N   0  0  0  0  0  0  0  0  0  0  0  0
    2.5667   -1.6279   -0.3172 C   0  0  2  0  0  0  0  0  0  0  0  0
    3.7089   -0.7851    0.1394 C   0  0  0  0  0  0  0  0  0  0  0  0
    2.7893   -2.2513   -1.7033 C   0  0  0  0  0  0  0  0  0  0  0  0
    4.0907    0.3330   -0.6021 C   0  0  0  0  0  0  0  0  0  0  0  0
    4.3961   -1.1151    1.3076 C   0  0  0  0  0  0  0  0  0  0  0  0
    0.0999   -1.5257   -0.0701 C   0  0  0  0  0  0  0  0  0  0  0  0
    5.1595    1.1212   -0.1754 C   0  0  0  0  0  0  0  0  0  0  0  0
    5.4651   -0.3272    1.7342 C   0  0  0  0  0  0  0  0  0  0  0  0
   -1.0966   -0.6464   -0.1162 C   0  0  0  0  0  0  0  0  0  0  0  0
    5.8468    0.7912    0.9928 C   0  0  0  0  0  0  0  0  0  0  0  0
   -3.3245    0.2682   -0.0696 C   0  0  0  0  0  0  0  0  0  0  0  0
   -1.1954    0.7080   -0.3572 C   0  0  0  0  0  0  0  0  0  0  0  0
   -4.7546    0.4340    0.0397 C   0  0  0  0  0  0  0  0  0  0  0  0
   -5.5970   -0.6640   -0.0955 C   0  0  0  0  0  0  0  0  0  0  0  0
   -5.2950    1.6921    0.2815 C   0  0  0  0  0  0  0  0  0  0  0  0
    6.6341    2.9725   -0.4072 C   0  0  0  0  0  0  0  0  0  0  0  0
   -6.9615   -0.4526    0.0187 C   0  0  0  0  0  0  0  0  0  0  0  0
   -6.6731    1.7982    0.3791 C   0  0  0  0  0  0  0  0  0  0  0  0
    2.4510   -2.4689    0.3796 H   0  0  0  0  0  0  0  0  0  0  0  0
    2.8203   -1.4912   -2.4919 H   0  0  0  0  0  0  0  0  0  0  0  0
    3.7314   -2.8096   -1.7349 H   0  0  0  0  0  0  0  0  0  0  0  0
    1.9781   -2.9436   -1.9545 H   0  0  0  0  0  0  0  0  0  0  0  0
    1.3345    0.0933   -0.5116 H   0  0  0  0  0  0  0  0  0  0  0  0
    3.5619    0.6043   -1.5125 H   0  0  0  0  0  0  0  0  0  0  0  0
    4.1119   -1.9825    1.8974 H   0  0  0  0  0  0  0  0  0  0  0  0
    5.9996   -0.5850    2.6439 H   0  0  0  0  0  0  0  0  0  0  0  0
    6.6853    1.3590    1.3812 H   0  0  0  0  0  0  0  0  0  0  0  0
   -0.3719    1.3791   -0.5611 H   0  0  0  0  0  0  0  0  0  0  0  0
   -5.2638   -1.6729   -0.3093 H   0  0  0  0  0  0  0  0  0  0  0  0
   -4.6769    2.5766    0.3970 H   0  0  0  0  0  0  0  0  0  0  0  0
    6.4123    3.4159    0.5695 H   0  0  0  0  0  0  0  0  0  0  0  0
    7.5571    2.3830   -0.3955 H   0  0  0  0  0  0  0  0  0  0  0  0
    6.7928    3.8008   -1.1055 H   0  0  0  0  0  0  0  0  0  0  0  0
   -7.6623   -1.2746   -0.0848 H   0  0  0  0  0  0  0  0  0  0  0  0
   -7.1445    2.7572    0.5678 H   0  0  0  0  0  0  0  0  0  0  0  0
  1 15  1  0  0  0  0
  1 17  1  0  0  0  0
  2 13  1  0  0  0  0
  2 22  1  0  0  0  0
  3 12  2  0  0  0  0
  4  7  1  0  0  0  0
  4 12  1  0  0  0  0
  4 29  1  0  0  0  0
  5 17  2  0  0  0  0
  5 18  1  0  0  0  0
  6 23  2  0  0  0  0
  6 24  1  0  0  0  0
  7  8  1  0  0  0  0
  7  9  1  0  0  0  0
  7 25  1  0  0  0  0
  8 10  2  0  0  0  0
  8 11  1  0  0  0  0
  9 26  1  0  0  0  0
  9 27  1  0  0  0  0
  9 28  1  0  0  0  0
 10 13  1  0  0  0  0
 10 30  1  0  0  0  0
 11 14  2  0  0  0  0
 11 31  1  0  0  0  0
 12 15  1  0  0  0  0
 13 16  2  0  0  0  0
 14 16  1  0  0  0  0
 14 32  1  0  0  0  0
 15 18  2  0  0  0  0
 16 33  1  0  0  0  0
 17 19  1  0  0  0  0
 18 34  1  0  0  0  0
 19 20  2  0  0  0  0
 19 21  1  0  0  0  0
 20 23  1  0  0  0  0
 20 35  1  0  0  0  0
 21 24  2  0  0  0  0
 21 36  1  0  0  0  0
 22 37  1  0  0  0  0
 22 38  1  0  0  0  0
 22 39  1  0  0  0  0
 23 40  1  0  0  0  0
 24 41  1  0  0  0  0
M  END
> <PUBCHEM_COMPOUND_CID>
49830708

> <PUBCHEM_CONFORMER_RMSD>
0.8

> <PUBCHEM_CONFORMER_DIVERSEORDER>
1
8
36
17
71
35
79
81
43
52
95
42
49
80
31
98
46
56
99
16
72
106
84
82
10
101
27
47
57
70
11
65
48
78
62
24
37
94
2
90
25
107
85
108
34
40
20
73
63
103
92
39
21
59
105
22
7
88
104
38
3
87
100
110
93
26
67
111
9
29
32
33
109
83
13
15
50
54
19
102
53
6
41
12
89
76
18
68
69
66
64
60
91
4
61
28
58
97
86
74
30
45
55
75
51
5
14
96
77
23
44

> <PUBCHEM_MMFF94_PARTIAL_CHARGES>
33
1 -0.08
10 -0.15
11 -0.15
12 0.71
13 0.08
14 -0.15
15 -0.05
16 -0.15
17 0.33
18 0.08
19 0.05
2 -0.36
20 -0.15
21 -0.15
22 0.28
23 0.16
24 0.16
29 0.37
3 -0.57
30 0.15
31 0.15
32 0.15
33 0.15
34 0.15
35 0.15
36 0.15
4 -0.73
40 0.15
41 0.15
5 -0.57
6 -0.62
7 0.44
8 -0.14

> <PUBCHEM_EFFECTIVE_ROTOR_COUNT>
6

> <PUBCHEM_PHARMACOPHORE_FEATURES>
8
1 2 acceptor
1 3 acceptor
1 4 donor
1 5 acceptor
1 6 acceptor
5 1 5 15 17 18 rings
6 6 19 20 21 23 24 rings
6 8 10 11 13 14 16 rings

> <PUBCHEM_HEAVY_ATOM_COUNT>
24

> <PUBCHEM_ATOM_DEF_STEREO_COUNT>
0

> <PUBCHEM_ATOM_UDEF_STEREO_COUNT>
1

> <PUBCHEM_BOND_DEF_STEREO_COUNT>
0

> <PUBCHEM_BOND_UDEF_STEREO_COUNT>
0

> <PUBCHEM_ISOTOPIC_ATOM_COUNT>
0

> <PUBCHEM_COMPONENT_COUNT>
1

> <PUBCHEM_CACTVS_TAUTO_COUNT>
2

> <PUBCHEM_CONFORMER_ID>
02F85B3400000001

> <PUBCHEM_MMFF94_ENERGY>
66.0784

> <PUBCHEM_FEATURE_SELFOVERLAP>
40.598

> <PUBCHEM_SHAPE_FINGERPRINT>
10 15 18114186349908991385
10280341 67 17913482722106468648
10670039 82 17703805691184590840
10906281 52 18411426136749218079
11724838 91 18334292097736650078
125118 31 18337954493971077553
12596602 18 17822009821808264137
12730499 353 17847063263900367926
13685833 64 11025798695436749950
13782708 43 12107800613926446625
13862211 1 8935001469081730765
13914758 101 13407069268164093167
14216079 64 8646772188236558273
14251752 14 10880002350024577291
14251764 18 18408602587226936173
14294032 229 17987239022062573910
14461889 52 18410577301341730875
14565420 104 18260264131622804746
14849402 71 18339083795645291905
15183329 4 18202005430194173257
15475509 35 15719940330016955282
15475509 8 12391517490324674803
15510800 12 11603078571646174176
16760501 71 18334296504262618244
16989713 51 17273126024501846359
17980427 23 18261109741816022806
20281389 69 18040996224418898517
21033648 29 17702362122811789266
21130935 74 18040718035398553827
21150785 3 15913314794189414605
21304303 94 13183022921843702396
21315764 268 18113893823823439020
21344244 78 15140680293722893846
21641784 216 16200159746428749595
21792934 111 16877657925692682493
221357 26 11024108746138906210
22149856 69 18199207143606067227
2215653 11 9439395835480638643
23016692 55 8934999295749352794
23081809 10 17203323352707582175
23272321 79 18410573989937048391
23559900 14 18340215072777258446
24771293 8 18408605881229911197
270888 7 18339363080304115372
3246875 12 18410857706718077419
3472631 163 18340772636830315964
34797466 226 17989215828183734175
3680242 22 18334294219481961200
4073 2 18335145306376536691
4325135 7 18342737416558666615
4340502 62 16950282888456481427
465052 167 11241972564409297154
5104073 3 18190747436469510067
54039377 194 9439138559041445888
59682541 52 16128385844124563988
6438161 24 10447933845747858572
86090 222 14852445399270745010
960060 61 11239990179409715098

> <PUBCHEM_SHAPE_MULTIPOLES>
471.08
20.99
2.51
1.06
13.4
0.45
-0.11
13.24
-2.91
-2.8
0.57
-1.83
-0.25
-0.83

> <PUBCHEM_SHAPE_SELFOVERLAP>
1003.786

> <PUBCHEM_SHAPE_VOLUME>
263.8

> <PUBCHEM_COORDINATE_TYPE>
2
5
10

$$$$
