49830560
  -OEChem-10052115193D

 44 46  0     0  0  0  0  0  0999 V2000
    3.3591   -0.4100    0.6063 O   0  0  0  0  0  0  0  0  0  0  0  0
   -5.0122   -3.1326    0.6134 O   0  0  0  0  0  0  0  0  0  0  0  0
   -2.1319    1.7671   -0.5582 N   0  0  0  0  0  0  0  0  0  0  0  0
   -1.8590   -0.2424    0.3513 N   0  0  0  0  0  0  0  0  0  0  0  0
    6.7209   -0.9148   -0.8137 N   0  0  0  0  0  0  0  0  0  0  0  0
   -2.8164   -2.6561    1.0714 N   0  0  0  0  0  0  0  0  0  0  0  0
   -3.3530    1.1514   -0.6581 C   0  0  0  0  0  0  0  0  0  0  0  0
   -1.2732    0.8951    0.0511 C   0  0  0  0  0  0  0  0  0  0  0  0
   -3.1569   -0.1014   -0.0834 C   0  0  0  0  0  0  0  0  0  0  0  0
    0.1047    1.2351    0.3108 C   0  0  0  0  0  0  0  0  0  0  0  0
    5.3721   -1.2523   -0.3837 C   0  0  0  0  0  0  0  0  0  0  0  0
   -4.2329   -1.0030   -0.0227 C   0  0  0  0  0  0  0  0  0  0  0  0
    4.6803   -0.0384    0.2156 C   0  0  0  0  0  0  0  0  0  0  0  0
    1.0781    0.2361    0.3319 C   0  0  0  0  0  0  0  0  0  0  0  0
    2.4098    0.5651    0.5847 C   0  0  0  0  0  0  0  0  0  0  0  0
   -4.5750    1.5699   -1.1855 C   0  0  0  0  0  0  0  0  0  0  0  0
    0.4631    2.5631    0.5427 C   0  0  0  0  0  0  0  0  0  0  0  0
   -5.4691   -0.6043   -0.5461 C   0  0  0  0  0  0  0  0  0  0  0  0
   -5.6350    0.6597   -1.1168 C   0  0  0  0  0  0  0  0  0  0  0  0
    2.7682    1.8931    0.8167 C   0  0  0  0  0  0  0  0  0  0  0  0
    1.7948    2.8920    0.7958 C   0  0  0  0  0  0  0  0  0  0  0  0
    7.6374   -0.8869    0.3288 C   0  0  0  0  0  0  0  0  0  0  0  0
    7.1973   -1.8666   -1.8204 C   0  0  0  0  0  0  0  0  0  0  0  0
   -4.0710   -2.3190    0.5683 C   0  0  0  0  0  0  0  0  0  0  0  0
   -1.9157    2.6966   -0.8936 H   0  0  0  0  0  0  0  0  0  0  0  0
    5.3529   -2.0990    0.3154 H   0  0  0  0  0  0  0  0  0  0  0  0
    4.7636   -1.5732   -1.2408 H   0  0  0  0  0  0  0  0  0  0  0  0
    4.6652    0.7550   -0.5441 H   0  0  0  0  0  0  0  0  0  0  0  0
    5.2063    0.3218    1.1059 H   0  0  0  0  0  0  0  0  0  0  0  0
    0.8143   -0.8037    0.1506 H   0  0  0  0  0  0  0  0  0  0  0  0
   -4.7013    2.5515   -1.6278 H   0  0  0  0  0  0  0  0  0  0  0  0
   -0.2721    3.3638    0.5484 H   0  0  0  0  0  0  0  0  0  0  0  0
   -6.3266   -1.2730   -0.5181 H   0  0  0  0  0  0  0  0  0  0  0  0
   -6.6061    0.9429   -1.5155 H   0  0  0  0  0  0  0  0  0  0  0  0
    3.7876    2.1889    1.0456 H   0  0  0  0  0  0  0  0  0  0  0  0
    2.0722    3.9248    0.9860 H   0  0  0  0  0  0  0  0  0  0  0  0
    7.3554   -0.1188    1.0553 H   0  0  0  0  0  0  0  0  0  0  0  0
    8.6500   -0.6298   -0.0033 H   0  0  0  0  0  0  0  0  0  0  0  0
    7.6855   -1.8525    0.8455 H   0  0  0  0  0  0  0  0  0  0  0  0
    6.5528   -1.8463   -2.7063 H   0  0  0  0  0  0  0  0  0  0  0  0
    7.2266   -2.8927   -1.4361 H   0  0  0  0  0  0  0  0  0  0  0  0
    8.2029   -1.5958   -2.1611 H   0  0  0  0  0  0  0  0  0  0  0  0
   -2.6625   -3.5694    1.4865 H   0  0  0  0  0  0  0  0  0  0  0  0
   -2.0144   -2.0363    1.0549 H   0  0  0  0  0  0  0  0  0  0  0  0
  1 13  1  0  0  0  0
  1 15  1  0  0  0  0
  2 24  2  0  0  0  0
  3  7  1  0  0  0  0
  3  8  1  0  0  0  0
  3 25  1  0  0  0  0
  4  8  2  0  0  0  0
  4  9  1  0  0  0  0
  5 11  1  0  0  0  0
  5 22  1  0  0  0  0
  5 23  1  0  0  0  0
  6 24  1  0  0  0  0
  6 43  1  0  0  0  0
  6 44  1  0  0  0  0
  7  9  1  0  0  0  0
  7 16  2  0  0  0  0
  8 10  1  0  0  0  0
  9 12  2  0  0  0  0
 10 14  2  0  0  0  0
 10 17  1  0  0  0  0
 11 13  1  0  0  0  0
 11 26  1  0  0  0  0
 11 27  1  0  0  0  0
 12 18  1  0  0  0  0
 12 24  1  0  0  0  0
 13 28  1  0  0  0  0
 13 29  1  0  0  0  0
 14 15  1  0  0  0  0
 14 30  1  0  0  0  0
 15 20  2  0  0  0  0
 16 19  1  0  0  0  0
 16 31  1  0  0  0  0
 17 21  2  0  0  0  0
 17 32  1  0  0  0  0
 18 19  2  0  0  0  0
 18 33  1  0  0  0  0
 19 34  1  0  0  0  0
 20 21  1  0  0  0  0
 20 35  1  0  0  0  0
 21 36  1  0  0  0  0
 22 37  1  0  0  0  0
 22 38  1  0  0  0  0
 22 39  1  0  0  0  0
 23 40  1  0  0  0  0
 23 41  1  0  0  0  0
 23 42  1  0  0  0  0
M  END
> <PUBCHEM_COMPOUND_CID>
49830560

> <PUBCHEM_CONFORMER_RMSD>
0.8

> <PUBCHEM_CONFORMER_DIVERSEORDER>
2
5
156
124
85
61
113
56
29
72
23
165
40
20
163
16
6
95
66
12
135
76
57
123
160
96
82
30
108
118
78
50
103
75
106
127
137
41
109
134
155
97
48
140
114
142
84
120
65
125
22
47
153
112
28
105
42
115
154
119
17
145
164
138
161
110
64
19
139
51
128
31
60
18
86
49
88
7
9
101
32
141
38
73
11
143
27
130
39
132
35
129
63
74
3
93
67
83
59
81
24
77
122
166
70
92
55
100
89
10
69
126
104
62
46
1
15
99
53
14
79
71
136
152
162
44
4
37
36
102
159
13
116
117
107
8
144
25
91
43
87
150
94
157
133
33
26
45
98
52
147
131
80
68
121
111
34
146
148
149
158
54
21
58
151
90

> <PUBCHEM_MMFF94_PARTIAL_CHARGES>
34
1 -0.36
10 0.05
11 0.27
12 0.09
13 0.28
14 -0.15
15 0.08
16 -0.15
17 -0.15
18 -0.15
19 -0.15
2 -0.57
20 -0.15
21 -0.15
22 0.27
23 0.27
24 0.54
25 0.27
3 0.03
30 0.15
31 0.15
32 0.15
33 0.15
34 0.15
35 0.15
36 0.15
4 -0.57
43 0.37
44 0.37
5 -0.81
6 -0.8
7 -0.15
8 0.13
9 0.23

> <PUBCHEM_EFFECTIVE_ROTOR_COUNT>
6

> <PUBCHEM_PHARMACOPHORE_FEATURES>
9
1 1 acceptor
1 2 acceptor
1 3 donor
1 5 cation
1 6 donor
3 3 4 8 cation
5 3 4 7 8 9 rings
6 10 14 15 17 20 21 rings
6 7 9 12 16 18 19 rings

> <PUBCHEM_HEAVY_ATOM_COUNT>
24

> <PUBCHEM_ATOM_DEF_STEREO_COUNT>
0

> <PUBCHEM_ATOM_UDEF_STEREO_COUNT>
0

> <PUBCHEM_BOND_DEF_STEREO_COUNT>
0

> <PUBCHEM_BOND_UDEF_STEREO_COUNT>
0

> <PUBCHEM_ISOTOPIC_ATOM_COUNT>
0

> <PUBCHEM_COMPONENT_COUNT>
1

> <PUBCHEM_CACTVS_TAUTO_COUNT>
7

> <PUBCHEM_CONFORMER_ID>
02F85AA000000002

> <PUBCHEM_MMFF94_ENERGY>
67.2054

> <PUBCHEM_FEATURE_SELFOVERLAP>
45.778

> <PUBCHEM_SHAPE_FINGERPRINT>
10883706 89 11670962359446670500
11315181 36 17846494829326080345
11393246 34 18272083950810449807
11796584 16 18334852797295844418
12516196 113 18202276984133598104
12643181 29 18408598145761468178
12760667 363 18131070415731166033
13402501 40 18413108355417574694
13540713 4 18265882730693634977
13685833 64 17989202629960353060
13690498 29 18187366558061628511
13740256 8 18412265043115652216
14123256 34 18273220785682369998
14251751 18 18336270115013065254
14420673 8 18411985749903277971
14931854 50 18261384499516661727
15183329 4 18113897131148599842
16120349 21 18335994151286738027
17492 89 18120934164527726339
17870717 6 18334575728971384173
193927 3 17989214741562522836
19784866 240 18202285788357787848
20281389 69 8502367833256215414
21033650 10 17386282099663840709
21065201 7 18114727344121912713
21196832 93 18189345722405846626
21267235 1 18335138713759388385
21279426 13 18408316709259777322
21307412 95 18411133624223372447
21623969 137 17632861906694070214
21682296 61 18060702779633718838
221490 88 18337105795131501553
2215653 11 18340194246284998453
22393880 68 18260257572985645243
23198884 109 16298389032880299644
23559900 14 18337100267550984393
25025965 108 17414980367484082238
25122255 55 18273219698654892974
2838139 119 14779268605617574894
3004659 81 18260545615727155768
335352 9 18409161087805463181
437815 12 18273211984830416456
465052 167 17989489628354762028
5104073 3 18338788035501496673
543368 44 13334737916773012773
58902169 19 16950570961315439454
59755656 215 18337668625100242486
6823239 73 18410564115749265320
7918774 8 17988659466984600950
8863177 126 18339642364193442386
9709674 26 18118396478863797017
999808 66 18202289087066699222

> <PUBCHEM_SHAPE_MULTIPOLES>
462.25
18.01
2.98
1.11
26.04
0.35
0.3
12.86
6.23
-1.39
-0.72
0.38
0.24
3.22

> <PUBCHEM_SHAPE_SELFOVERLAP>
1002.536

> <PUBCHEM_SHAPE_VOLUME>
256

> <PUBCHEM_COORDINATE_TYPE>
2
5
10

$$$$
