24905233
  -OEChem-10052115143D

 41 44  0     0  0  0  0  0  0999 V2000
    2.7822    1.0407   -0.0199 N   0  0  0  0  0  0  0  0  0  0  0  0
    1.5053    1.3905    0.2224 N   0  0  0  0  0  0  0  0  0  0  0  0
    4.1232   -0.9449   -0.3684 N   0  0  0  0  0  0  0  0  0  0  0  0
    2.7758   -2.9751   -0.2523 N   0  0  0  0  0  0  0  0  0  0  0  0
    0.4246   -2.9411    0.1573 N   0  0  0  0  0  0  0  0  0  0  0  0
   -4.6494    0.0936    1.2613 N   0  0  0  0  0  0  0  0  0  0  0  0
   -3.3459    0.3479   -2.7201 N   0  0  0  0  0  0  0  0  0  0  0  0
    3.7916    2.0664   -0.1358 C   0  0  0  0  0  0  0  0  0  0  0  0
    1.7208   -0.8784    0.0531 C   0  0  0  0  0  0  0  0  0  0  0  0
    0.8640    0.2175    0.2658 C   0  0  0  0  0  0  0  0  0  0  0  0
    2.9671   -0.3054   -0.1303 C   0  0  0  0  0  0  0  0  0  0  0  0
   -0.5505    0.1863    0.5100 C   0  0  0  0  0  0  0  0  0  0  0  0
    3.9418    2.8581    1.1656 C   0  0  0  0  0  0  0  0  0  0  0  0
    3.5105    3.0023   -1.3139 C   0  0  0  0  0  0  0  0  0  0  0  0
    1.6464   -2.2657   -0.0147 C   0  0  0  0  0  0  0  0  0  0  0  0
   -1.4473    0.2398   -0.5530 C   0  0  0  0  0  0  0  0  0  0  0  0
   -2.8323    0.2096   -0.3172 C   0  0  0  0  0  0  0  0  0  0  0  0
   -1.0326    0.1025    1.8104 C   0  0  0  0  0  0  0  0  0  0  0  0
   -3.3288    0.1245    1.0005 C   0  0  0  0  0  0  0  0  0  0  0  0
   -2.4095    0.0725    2.0446 C   0  0  0  0  0  0  0  0  0  0  0  0
   -3.7572    0.2621   -1.3687 C   0  0  0  0  0  0  0  0  0  0  0  0
    3.9276   -2.2806   -0.4121 C   0  0  0  0  0  0  0  0  0  0  0  0
   -5.1185    0.2304   -1.1029 C   0  0  0  0  0  0  0  0  0  0  0  0
   -5.5089    0.1464    0.2182 C   0  0  0  0  0  0  0  0  0  0  0  0
    4.7469    1.5643   -0.3312 H   0  0  0  0  0  0  0  0  0  0  0  0
    3.0321    3.4195    1.4059 H   0  0  0  0  0  0  0  0  0  0  0  0
    4.7678    3.5732    1.0897 H   0  0  0  0  0  0  0  0  0  0  0  0
    4.1514    2.1885    2.0071 H   0  0  0  0  0  0  0  0  0  0  0  0
    2.5842    3.5694   -1.1690 H   0  0  0  0  0  0  0  0  0  0  0  0
    3.4111    2.4360   -2.2465 H   0  0  0  0  0  0  0  0  0  0  0  0
    4.3277    3.7203   -1.4406 H   0  0  0  0  0  0  0  0  0  0  0  0
   -1.0391    0.3044   -1.5580 H   0  0  0  0  0  0  0  0  0  0  0  0
   -0.3526    0.0590    2.6580 H   0  0  0  0  0  0  0  0  0  0  0  0
   -2.7618    0.0064    3.0724 H   0  0  0  0  0  0  0  0  0  0  0  0
    4.8124   -2.8792   -0.6008 H   0  0  0  0  0  0  0  0  0  0  0  0
   -0.4332   -2.4396    0.3343 H   0  0  0  0  0  0  0  0  0  0  0  0
    0.4149   -3.9506    0.0993 H   0  0  0  0  0  0  0  0  0  0  0  0
   -5.8598    0.2693   -1.8938 H   0  0  0  0  0  0  0  0  0  0  0  0
   -6.5598    0.1181    0.4868 H   0  0  0  0  0  0  0  0  0  0  0  0
   -4.0495    0.3838   -3.4470 H   0  0  0  0  0  0  0  0  0  0  0  0
   -2.3743    0.3755   -2.9881 H   0  0  0  0  0  0  0  0  0  0  0  0
  1  2  1  0  0  0  0
  1  8  1  0  0  0  0
  1 11  1  0  0  0  0
  2 10  2  0  0  0  0
  3 11  2  0  0  0  0
  3 22  1  0  0  0  0
  4 15  1  0  0  0  0
  4 22  2  0  0  0  0
  5 15  1  0  0  0  0
  5 36  1  0  0  0  0
  5 37  1  0  0  0  0
  6 19  2  0  0  0  0
  6 24  1  0  0  0  0
  7 21  1  0  0  0  0
  7 40  1  0  0  0  0
  7 41  1  0  0  0  0
  8 13  1  0  0  0  0
  8 14  1  0  0  0  0
  8 25  1  0  0  0  0
  9 10  1  0  0  0  0
  9 11  1  0  0  0  0
  9 15  2  0  0  0  0
 10 12  1  0  0  0  0
 12 16  2  0  0  0  0
 12 18  1  0  0  0  0
 13 26  1  0  0  0  0
 13 27  1  0  0  0  0
 13 28  1  0  0  0  0
 14 29  1  0  0  0  0
 14 30  1  0  0  0  0
 14 31  1  0  0  0  0
 16 17  1  0  0  0  0
 16 32  1  0  0  0  0
 17 19  1  0  0  0  0
 17 21  2  0  0  0  0
 18 20  2  0  0  0  0
 18 33  1  0  0  0  0
 19 20  1  0  0  0  0
 20 34  1  0  0  0  0
 21 23  1  0  0  0  0
 22 35  1  0  0  0  0
 23 24  2  0  0  0  0
 23 38  1  0  0  0  0
 24 39  1  0  0  0  0
M  END
> <PUBCHEM_COMPOUND_CID>
24905233

> <PUBCHEM_CONFORMER_RMSD>
0.6

> <PUBCHEM_CONFORMER_DIVERSEORDER>
2
4
5
6
3
1

> <PUBCHEM_MMFF94_PARTIAL_CHARGES>
30
1 0.31
10 0.23
11 0.11
12 0.05
15 0.41
16 -0.15
18 -0.15
19 0.31
2 -0.71
20 -0.15
21 0.1
22 0.47
23 -0.15
24 0.16
3 -0.57
32 0.15
33 0.15
34 0.15
35 0.15
36 0.4
37 0.4
38 0.15
39 0.15
4 -0.62
40 0.4
41 0.4
5 -0.9
6 -0.62
7 -0.9
8 0.26

> <PUBCHEM_EFFECTIVE_ROTOR_COUNT>
2

> <PUBCHEM_PHARMACOPHORE_FEATURES>
13
1 2 acceptor
1 5 cation
1 5 donor
1 6 acceptor
1 7 cation
1 7 donor
3 1 3 11 cation
3 3 4 22 cation
3 8 13 14 hydrophobe
5 1 2 9 10 11 rings
6 12 16 17 18 19 20 rings
6 3 4 9 11 15 22 rings
6 6 17 19 21 23 24 rings

> <PUBCHEM_HEAVY_ATOM_COUNT>
24

> <PUBCHEM_ATOM_DEF_STEREO_COUNT>
0

> <PUBCHEM_ATOM_UDEF_STEREO_COUNT>
0

> <PUBCHEM_BOND_DEF_STEREO_COUNT>
0

> <PUBCHEM_BOND_UDEF_STEREO_COUNT>
0

> <PUBCHEM_ISOTOPIC_ATOM_COUNT>
0

> <PUBCHEM_COMPONENT_COUNT>
1

> <PUBCHEM_CACTVS_TAUTO_COUNT>
19

> <PUBCHEM_CONFORMER_ID>
017C061100000002

> <PUBCHEM_MMFF94_ENERGY>
76.5898

> <PUBCHEM_FEATURE_SELFOVERLAP>
66.282

> <PUBCHEM_SHAPE_FINGERPRINT>
11582403 64 17680678678984342664
11725454 13 17750779112033204672
12236239 1 17632579314244886995
12403259 415 17821452348286401473
12616971 3 17988929942275584099
12730499 353 18337117863862625920
13009979 54 17273422660264412730
13140716 1 18339364188484753898
13631057 29 17770207577486635671
13911987 19 18120668077965877876
13955234 65 18412262831123177098
15375358 24 17821445789813428809
15842332 3 17631750265355567577
15961568 22 16516258464488980764
16752209 62 16415194534514075761
17138139 8 17485619836013035071
17818456 19 17199964245241369233
17844677 252 18337395950738257805
1813 80 17842573855187581790
18186145 218 17676489393790641209
200 152 18200875072052676667
20511986 3 17560786715563200553
20600515 1 16153709890055847317
20645477 70 18407760322227491362
21033648 29 17894624851220152781
21065201 7 16588031199141977963
2255824 54 18343308033245196710
23557571 272 17167869634239131103
23559900 14 16732989691256661026
238 59 18335699412459168422
312423 11 18059307465076536801
341906 21 15647050460767654405
4340502 62 18342174526497332586
46194498 28 18260265226807212669
469060 322 17830739021068822779
474 4 18271806886522214528
495365 180 18408321111970599112
5281201 14 18260547779768252709
6034566 193 17829338230185628860
633830 44 18129682857758047196
70251023 43 18269557134990996362
7471813 234 18059855000735243784
77492 1 17632300042628506347
8272917 22 18340776969861499541

> <PUBCHEM_SHAPE_MULTIPOLES>
459.04
10.6
2.8
1.61
7.37
0.59
-0.18
-2.83
-1.78
-6.16
-0.31
1.88
-0.55
0.42

> <PUBCHEM_SHAPE_SELFOVERLAP>
1028.814

> <PUBCHEM_SHAPE_VOLUME>
238.9

> <PUBCHEM_COORDINATE_TYPE>
2
5
10

$$$$
