233113
  -OEChem-10062121553D

 26 27  0     0  0  0  0  0  0999 V2000
   -1.8484   -1.0142    0.7513 S   0  0  0  0  0  0  0  0  0  0  0  0
    3.5098   -0.9799   -1.3231 O   0  0  0  0  0  0  0  0  0  0  0  0
    4.5249    0.0937    1.0314 O   0  0  0  0  0  0  0  0  0  0  0  0
   -3.5102    1.7489   -1.3054 O   0  0  0  0  0  0  0  0  0  0  0  0
   -4.2067   -2.1399    1.1162 O   0  0  0  0  0  0  0  0  0  0  0  0
   -4.0948   -0.1787   -0.1400 N   0  0  0  0  0  0  0  0  0  0  0  0
    0.6110    0.8847   -0.1056 C   0  0  0  0  0  0  0  0  0  0  0  0
   -0.7608    1.1645   -0.5000 C   0  0  0  0  0  0  0  0  0  0  0  0
    1.4169    0.0779   -0.9088 C   0  0  0  0  0  0  0  0  0  0  0  0
   -1.8479    0.4288   -0.1889 C   0  0  0  0  0  0  0  0  0  0  0  0
    2.7324   -0.1904   -0.5304 C   0  0  0  0  0  0  0  0  0  0  0  0
    1.1204    1.4231    1.0761 C   0  0  0  0  0  0  0  0  0  0  0  0
    3.2418    0.3481    0.6512 C   0  0  0  0  0  0  0  0  0  0  0  0
    2.4358    1.1548    1.4545 C   0  0  0  0  0  0  0  0  0  0  0  0
   -3.2206    0.7750   -0.6267 C   0  0  0  0  0  0  0  0  0  0  0  0
   -3.5903   -1.2142    0.6112 C   0  0  0  0  0  0  0  0  0  0  0  0
    3.4868   -2.3820   -1.0630 C   0  0  0  0  0  0  0  0  0  0  0  0
   -0.8770    2.0633   -1.1019 H   0  0  0  0  0  0  0  0  0  0  0  0
    1.0280   -0.3450   -1.8327 H   0  0  0  0  0  0  0  0  0  0  0  0
    0.5047    2.0541    1.7127 H   0  0  0  0  0  0  0  0  0  0  0  0
    2.8200    1.5807    2.3776 H   0  0  0  0  0  0  0  0  0  0  0  0
   -5.0888   -0.1160   -0.3347 H   0  0  0  0  0  0  0  0  0  0  0  0
    2.4776   -2.7815   -1.2044 H   0  0  0  0  0  0  0  0  0  0  0  0
    3.8349   -2.5915   -0.0465 H   0  0  0  0  0  0  0  0  0  0  0  0
    4.1598   -2.8730   -1.7712 H   0  0  0  0  0  0  0  0  0  0  0  0
    4.7017    0.5474    1.8734 H   0  0  0  0  0  0  0  0  0  0  0  0
  1 10  1  0  0  0  0
  1 16  1  0  0  0  0
  2 11  1  0  0  0  0
  2 17  1  0  0  0  0
  3 13  1  0  0  0  0
  3 26  1  0  0  0  0
  4 15  2  0  0  0  0
  5 16  2  0  0  0  0
  6 15  1  0  0  0  0
  6 16  1  0  0  0  0
  6 22  1  0  0  0  0
  7  8  1  0  0  0  0
  7  9  2  0  0  0  0
  7 12  1  0  0  0  0
  8 10  2  3  0  0  0
  8 18  1  0  0  0  0
  9 11  1  0  0  0  0
  9 19  1  0  0  0  0
 10 15  1  0  0  0  0
 11 13  2  0  0  0  0
 12 14  2  0  0  0  0
 12 20  1  0  0  0  0
 13 14  1  0  0  0  0
 14 21  1  0  0  0  0
 17 23  1  0  0  0  0
 17 24  1  0  0  0  0
 17 25  1  0  0  0  0
M  END
> <PUBCHEM_COMPOUND_CID>
233113

> <PUBCHEM_CONFORMER_RMSD>
0.6

> <PUBCHEM_CONFORMER_DIVERSEORDER>
1
5
4
2
6
3

> <PUBCHEM_MMFF94_PARTIAL_CHARGES>
23
1 -0.24
10 0.12
11 0.08
12 -0.15
13 0.08
14 -0.15
15 0.62
16 0.77
17 0.28
18 0.15
19 0.15
2 -0.36
20 0.15
21 0.15
22 0.37
26 0.45
3 -0.53
4 -0.57
5 -0.57
6 -0.49
7 0.03
8 -0.18
9 -0.15

> <PUBCHEM_EFFECTIVE_ROTOR_COUNT>
2.4

> <PUBCHEM_PHARMACOPHORE_FEATURES>
6
1 2 acceptor
1 3 donor
1 4 acceptor
1 6 donor
5 1 6 10 15 16 rings
6 7 9 11 12 13 14 rings

> <PUBCHEM_HEAVY_ATOM_COUNT>
17

> <PUBCHEM_ATOM_DEF_STEREO_COUNT>
0

> <PUBCHEM_ATOM_UDEF_STEREO_COUNT>
0

> <PUBCHEM_BOND_DEF_STEREO_COUNT>
0

> <PUBCHEM_BOND_UDEF_STEREO_COUNT>
1

> <PUBCHEM_ISOTOPIC_ATOM_COUNT>
0

> <PUBCHEM_COMPONENT_COUNT>
1

> <PUBCHEM_CACTVS_TAUTO_COUNT>
9

> <PUBCHEM_CONFORMER_ID>
00038E9900000001

> <PUBCHEM_MMFF94_ENERGY>
49.1856

> <PUBCHEM_FEATURE_SELFOVERLAP>
30.446

> <PUBCHEM_SHAPE_FINGERPRINT>
10465860 71 17676216766040333253
10751810 167 17240205434662383257
11471102 22 17847059999766998608
11543360 7 17895210903923731948
11796584 16 18116146671889018050
12236239 1 16153702111653639981
12346177 29 18187069673010986429
12500047 106 18042670750621382477
13134695 92 17632289052034497408
13296908 3 18342459239926870077
13544592 145 18265612078728080997
14252887 29 18131349713560027152
14289901 80 17775278400237775929
14386348 63 18412825789275947427
15342816 4 17458343091051827114
15375358 24 18341600517251186648
15653759 3 18411702101593922801
16752209 62 17531516681419178979
17804303 29 18187645847179443305
18915474 69 16588021350597319243
19049666 15 18270678662721416889
19107657 162 18409730681350286191
19422 9 16443062798590730065
200 152 16845562111519917829
20279233 1 18341889697098442036
20281475 54 18339938046795101228
20600515 1 18114729448297665956
20645477 70 17703219620735977876
20871999 31 17967827040946228463
21065201 7 18187359909198806289
22943178 12 18411694391995842149
23402539 116 17385995166241989604
23526113 38 18200579311635145752
23557571 272 18334002883129165005
23559900 14 18336827477456458668
23598291 2 16008744688933072406
3082319 5 15864069892467459581
474 4 15768059510960008600
57096353 35 15647059278140301591
573450 72 17458613510851413313
6049 1 18411983585181965873
77492 1 16153420636640045045
9709674 26 18411132528632009223

> <PUBCHEM_SHAPE_MULTIPOLES>
325.24
8.73
1.93
1.34
1.94
0.89
0.07
3.16
0.49
-0.15
-0.03
-0.17
-0.03
2.45

> <PUBCHEM_SHAPE_SELFOVERLAP>
686.349

> <PUBCHEM_SHAPE_VOLUME>
184

> <PUBCHEM_COORDINATE_TYPE>
2
5
10

$$$$
