2818965
  -OEChem-10062121523D

 27 30  0     0  0  0  0  0  0999 V2000
    5.3089   -0.3872   -0.0510 S   0  0  0  0  0  0  0  0  0  0  0  0
    1.6457    2.5466    0.0037 O   0  0  0  0  0  0  0  0  0  0  0  0
   -3.8729   -1.1555   -0.0347 O   0  0  0  0  0  0  0  0  0  0  0  0
    0.4782    0.5296    0.0207 N   0  0  0  0  0  0  0  0  0  0  0  0
   -0.7970    0.9814    0.0590 N   0  0  0  0  0  0  0  0  0  0  0  0
    1.5140   -1.5892    0.0244 N   0  0  0  0  0  0  0  0  0  0  0  0
    2.8186    0.4705   -0.0139 C   0  0  0  0  0  0  0  0  0  0  0  0
    2.6948   -0.8720   -0.0023 C   0  0  0  0  0  0  0  0  0  0  0  0
    0.4525   -0.8574    0.0363 C   0  0  0  0  0  0  0  0  0  0  0  0
    4.1877    1.0477   -0.0416 C   0  0  0  0  0  0  0  0  0  0  0  0
    1.5998    1.3242    0.0032 C   0  0  0  0  0  0  0  0  0  0  0  0
    3.9807   -1.6356   -0.0203 C   0  0  0  0  0  0  0  0  0  0  0  0
   -1.6591   -0.0953    0.0589 C   0  0  0  0  0  0  0  0  0  0  0  0
   -0.9757   -1.2601    0.0609 C   0  0  0  0  0  0  0  0  0  0  0  0
   -3.0878   -0.0366    0.0108 C   0  0  0  0  0  0  0  0  0  0  0  0
   -3.8920    1.0915    0.0039 C   0  0  0  0  0  0  0  0  0  0  0  0
   -5.2308    0.6355   -0.0483 C   0  0  0  0  0  0  0  0  0  0  0  0
   -5.1657   -0.7381   -0.0700 C   0  0  0  0  0  0  0  0  0  0  0  0
    4.3526    1.6466   -0.9415 H   0  0  0  0  0  0  0  0  0  0  0  0
    4.3837    1.6591    0.8437 H   0  0  0  0  0  0  0  0  0  0  0  0
    4.0865   -2.2567    0.8740 H   0  0  0  0  0  0  0  0  0  0  0  0
    4.0552   -2.2674   -0.9101 H   0  0  0  0  0  0  0  0  0  0  0  0
   -1.0610    1.8964   -0.2794 H   0  0  0  0  0  0  0  0  0  0  0  0
   -1.3370   -2.2736    0.0480 H   0  0  0  0  0  0  0  0  0  0  0  0
   -3.5582    2.1196    0.0336 H   0  0  0  0  0  0  0  0  0  0  0  0
   -6.1305    1.2332   -0.0674 H   0  0  0  0  0  0  0  0  0  0  0  0
   -5.9085   -1.5215   -0.1081 H   0  0  0  0  0  0  0  0  0  0  0  0
  1 10  1  0  0  0  0
  1 12  1  0  0  0  0
  2 11  2  0  0  0  0
  3 15  1  0  0  0  0
  3 18  1  0  0  0  0
  4  5  1  0  0  0  0
  4  9  1  0  0  0  0
  4 11  1  0  0  0  0
  5 13  1  0  0  0  0
  5 23  1  0  0  0  0
  6  8  1  0  0  0  0
  6  9  2  0  0  0  0
  7  8  2  0  0  0  0
  7 10  1  0  0  0  0
  7 11  1  0  0  0  0
  8 12  1  0  0  0  0
  9 14  1  0  0  0  0
 10 19  1  0  0  0  0
 10 20  1  0  0  0  0
 12 21  1  0  0  0  0
 12 22  1  0  0  0  0
 13 14  2  0  0  0  0
 13 15  1  0  0  0  0
 14 24  1  0  0  0  0
 15 16  2  0  0  0  0
 16 17  1  0  0  0  0
 16 25  1  0  0  0  0
 17 18  2  0  0  0  0
 17 26  1  0  0  0  0
 18 27  1  0  0  0  0
M  END
> <PUBCHEM_COMPOUND_CID>
2818965

> <PUBCHEM_CONFORMER_RMSD>
0.6

> <PUBCHEM_CONFORMER_DIVERSEORDER>
1
2

> <PUBCHEM_MMFF94_PARTIAL_CHARGES>
23
1 -0.46
10 0.37
11 0.62
12 0.37
13 0.15
14 -0.14
15 0.09
16 -0.15
17 -0.15
18 -0.01
2 -0.57
23 0.4
24 0.15
25 0.15
26 0.15
27 0.15
3 -0.28
4 -0.1
5 -0.52
6 -0.62
7 -0.12
8 0.03
9 0.5

> <PUBCHEM_EFFECTIVE_ROTOR_COUNT>
1.6

> <PUBCHEM_PHARMACOPHORE_FEATURES>
7
1 2 acceptor
1 3 acceptor
1 5 donor
5 1 7 8 10 12 rings
5 3 15 16 17 18 rings
5 4 5 9 13 14 rings
6 4 6 7 8 9 11 rings

> <PUBCHEM_HEAVY_ATOM_COUNT>
18

> <PUBCHEM_ATOM_DEF_STEREO_COUNT>
0

> <PUBCHEM_ATOM_UDEF_STEREO_COUNT>
0

> <PUBCHEM_BOND_DEF_STEREO_COUNT>
0

> <PUBCHEM_BOND_UDEF_STEREO_COUNT>
0

> <PUBCHEM_ISOTOPIC_ATOM_COUNT>
0

> <PUBCHEM_COMPONENT_COUNT>
1

> <PUBCHEM_CACTVS_TAUTO_COUNT>
8

> <PUBCHEM_CONFORMER_ID>
002B039500000001

> <PUBCHEM_MMFF94_ENERGY>
39.361

> <PUBCHEM_FEATURE_SELFOVERLAP>
35.726

> <PUBCHEM_SHAPE_FINGERPRINT>
11401426 45 18413105056687044683
11471102 20 18410291415089968350
11578080 2 16843028995247894514
11806522 49 18410012130435789326
12107183 9 17619913859727061307
12236239 1 17846499231366618283
12403259 415 18334566945521229533
12507557 5 18412263934993036385
13167823 11 18341891922355984967
13533116 47 14189304712474604646
13675066 3 18201715175997639443
13690532 89 18411982446751459610
13862211 1 18410289194829610426
14115302 16 17822021925332312134
14341114 176 18410018736601892881
15048467 5 17531253881097252654
15099037 51 18410294713593333150
15196674 1 18410575080378667617
15536298 74 18342175578722063424
17834072 33 18342737442022476119
18186145 218 17894904144590606671
18522853 276 18342738498711076992
200 152 18130786754948151267
20612939 158 18334298694648414620
20645477 70 18340770351660262150
21029758 11 18413389821814627480
21267235 1 18412271618325655254
21279426 13 18192429667046341452
21452121 103 18271795870200093344
21709351 56 18409722980848510421
221490 88 18264213680463469211
23402539 116 18201712951157133511
23402655 69 18341610400081535749
23557571 272 17240761735711044989
23559900 14 18412541032954765928
29717793 49 17917710171760966957
3004659 81 18187650168227915894
335352 9 18410575067488549878
34934 24 18412258476353353522
351380 180 18409165524100140385
3545911 37 18410575085354116921
4072396 5 18336815421531010930
4214541 1 18410855452218793645
42788 4 18410575080415727311
4463277 17 18410856556035944772
4990 188 18202571665575425574
5104073 3 18410856564209129387
537710 114 18410859863118662140
542803 24 17313107444919195959
602551 16 15936989542576924897
633830 44 17748824150647409067
69090 78 18412260653369185071
77779 3 18410293618782718039
9709674 26 18336832004115157259
9971528 1 18411697690752355936
9981440 41 17403166492441237168
9999458 23 17968095360870653998

> <PUBCHEM_SHAPE_MULTIPOLES>
347.6
11.39
1.76
0.6
5.42
0.43
0
-0.81
0.34
-0.93
0
-0.03
-0.01
-0.01

> <PUBCHEM_SHAPE_SELFOVERLAP>
770.983

> <PUBCHEM_SHAPE_VOLUME>
191.1

> <PUBCHEM_COORDINATE_TYPE>
2
5
10

$$$$
