49830891
  -OEChem-10052120443D

 40 42  0     1  0  0  0  0  0999 V2000
    1.8453   -2.7345    0.1520 Cl  0  0  0  0  0  0  0  0  0  0  0  0
   -3.4501   -1.6190    0.4509 O   0  0  0  0  0  0  0  0  0  0  0  0
   -5.6934   -0.4644   -0.2060 O   0  0  0  0  0  0  0  0  0  0  0  0
   -5.8019    1.6893    0.5554 O   0  0  0  0  0  0  0  0  0  0  0  0
    2.6109    0.0591   -0.4576 N   0  0  3  0  0  0  0  0  0  0  0  0
    6.0572    1.4148    1.9265 N   0  0  0  0  0  0  0  0  0  0  0  0
    0.4742    0.9807   -0.4269 N   0  0  0  0  0  0  0  0  0  0  0  0
   -1.7138    1.9319   -0.3977 N   0  0  0  0  0  0  0  0  0  0  0  0
    4.8243    0.7876   -0.1033 C   0  0  1  0  0  0  0  0  0  0  0  0
    4.7807   -0.0869   -1.3525 C   0  0  0  0  0  0  0  0  0  0  0  0
    3.5318    0.3998    0.6256 C   0  0  0  0  0  0  0  0  0  0  0  0
    3.3032   -0.0619   -1.7382 C   0  0  0  0  0  0  0  0  0  0  0  0
    6.0731    0.5761    0.7340 C   0  0  0  0  0  0  0  0  0  0  0  0
    1.2538   -0.1173   -0.2921 C   0  0  0  0  0  0  0  0  0  0  0  0
    0.7740   -1.3833   -0.0036 C   0  0  0  0  0  0  0  0  0  0  0  0
   -0.5959   -1.5386    0.1586 C   0  0  0  0  0  0  0  0  0  0  0  0
   -1.4262   -0.4265    0.0258 C   0  0  0  0  0  0  0  0  0  0  0  0
   -0.8625    0.8239   -0.2678 C   0  0  0  0  0  0  0  0  0  0  0  0
   -1.1360   -2.9002    0.4711 C   0  0  0  0  0  0  0  0  0  0  0  0
   -2.8989   -0.5565    0.1929 C   0  0  0  0  0  0  0  0  0  0  0  0
   -3.7131    0.6821    0.0334 C   0  0  0  0  0  0  0  0  0  0  0  0
   -3.0672    1.8210   -0.2467 C   0  0  0  0  0  0  0  0  0  0  0  0
   -5.1694    0.7229    0.1661 C   0  0  0  0  0  0  0  0  0  0  0  0
    4.7562    1.8402   -0.4138 H   0  0  0  0  0  0  0  0  0  0  0  0
    5.0866   -1.1144   -1.1188 H   0  0  0  0  0  0  0  0  0  0  0  0
    5.4238    0.2855   -2.1554 H   0  0  0  0  0  0  0  0  0  0  0  0
    3.6766   -0.4672    1.2801 H   0  0  0  0  0  0  0  0  0  0  0  0
    3.1530    1.2350    1.2249 H   0  0  0  0  0  0  0  0  0  0  0  0
    3.0787    0.8093   -2.3637 H   0  0  0  0  0  0  0  0  0  0  0  0
    3.0224   -0.9699   -2.2816 H   0  0  0  0  0  0  0  0  0  0  0  0
    6.9627    0.8140    0.1400 H   0  0  0  0  0  0  0  0  0  0  0  0
    6.1598   -0.4723    1.0408 H   0  0  0  0  0  0  0  0  0  0  0  0
    6.0119    2.3962    1.6555 H   0  0  0  0  0  0  0  0  0  0  0  0
    6.9333    1.2982    2.4338 H   0  0  0  0  0  0  0  0  0  0  0  0
   -1.8219   -3.2246   -0.3194 H   0  0  0  0  0  0  0  0  0  0  0  0
   -0.4014   -3.7027    0.5525 H   0  0  0  0  0  0  0  0  0  0  0  0
   -1.6507   -2.8891    1.4384 H   0  0  0  0  0  0  0  0  0  0  0  0
   -1.3133    2.8354   -0.6097 H   0  0  0  0  0  0  0  0  0  0  0  0
   -3.5745    2.7695   -0.3830 H   0  0  0  0  0  0  0  0  0  0  0  0
   -6.6714   -0.4758   -0.1300 H   0  0  0  0  0  0  0  0  0  0  0  0
  1 15  1  0  0  0  0
  2 20  2  0  0  0  0
  3 23  1  0  0  0  0
  3 40  1  0  0  0  0
  4 23  2  0  0  0  0
  5 11  1  0  0  0  0
  5 12  1  0  0  0  0
  5 14  1  0  0  0  0
  6 13  1  0  0  0  0
  6 33  1  0  0  0  0
  6 34  1  0  0  0  0
  7 14  1  0  0  0  0
  7 18  2  0  0  0  0
  8 18  1  0  0  0  0
  8 22  1  0  0  0  0
  8 38  1  0  0  0  0
  9 10  1  0  0  0  0
  9 11  1  0  0  0  0
  9 13  1  0  0  0  0
  9 24  1  0  0  0  0
 10 12  1  0  0  0  0
 10 25  1  0  0  0  0
 10 26  1  0  0  0  0
 11 27  1  0  0  0  0
 11 28  1  0  0  0  0
 12 29  1  0  0  0  0
 12 30  1  0  0  0  0
 13 31  1  0  0  0  0
 13 32  1  0  0  0  0
 14 15  2  0  0  0  0
 15 16  1  0  0  0  0
 16 17  2  0  0  0  0
 16 19  1  0  0  0  0
 17 18  1  0  0  0  0
 17 20  1  0  0  0  0
 19 35  1  0  0  0  0
 19 36  1  0  0  0  0
 19 37  1  0  0  0  0
 20 21  1  0  0  0  0
 21 22  2  0  0  0  0
 21 23  1  0  0  0  0
 22 39  1  0  0  0  0
M  END
> <PUBCHEM_COMPOUND_CID>
49830891

> <PUBCHEM_CONFORMER_RMSD>
0.6

> <PUBCHEM_CONFORMER_DIVERSEORDER>
1
11
6
8
9
12
2
10
7
5
4
3

> <PUBCHEM_MMFF94_PARTIAL_CHARGES>
26
1 -0.18
11 0.37
12 0.37
13 0.27
14 0.41
15 0.18
16 -0.14
17 0.09
18 0.41
19 0.14
2 -0.57
20 0.47
21 0.03
22 -0.05
23 0.71
3 -0.65
33 0.36
34 0.36
38 0.4
39 0.15
4 -0.57
40 0.5
5 -0.84
6 -0.99
7 -0.62
8 -0.6

> <PUBCHEM_EFFECTIVE_ROTOR_COUNT>
4

> <PUBCHEM_PHARMACOPHORE_FEATURES>
12
1 2 acceptor
1 3 acceptor
1 4 acceptor
1 5 cation
1 6 cation
1 6 donor
1 8 donor
3 3 4 23 anion
3 7 8 18 cation
5 5 9 10 11 12 rings
6 7 14 15 16 17 18 rings
6 8 17 18 20 21 22 rings

> <PUBCHEM_HEAVY_ATOM_COUNT>
23

> <PUBCHEM_ATOM_DEF_STEREO_COUNT>
0

> <PUBCHEM_ATOM_UDEF_STEREO_COUNT>
1

> <PUBCHEM_BOND_DEF_STEREO_COUNT>
0

> <PUBCHEM_BOND_UDEF_STEREO_COUNT>
0

> <PUBCHEM_ISOTOPIC_ATOM_COUNT>
0

> <PUBCHEM_COMPONENT_COUNT>
1

> <PUBCHEM_CACTVS_TAUTO_COUNT>
22

> <PUBCHEM_CONFORMER_ID>
02F85BEB00000001

> <PUBCHEM_MMFF94_ENERGY>
87.691

> <PUBCHEM_FEATURE_SELFOVERLAP>
60.988

> <PUBCHEM_SHAPE_FINGERPRINT>
10 15 18113904887485340960
10319926 262 18339630236176041610
10411042 1 17616539892176000867
10906281 52 18114764679776543037
11646440 116 18270976712261889905
12035758 1 18338806705518194441
12236239 1 17240766202703969964
12390115 104 18198074590088384073
12403259 118 17385721353054815252
12403259 415 18202010958069627630
12403814 3 17095241432352845751
12616971 3 16877662391894037502
12633257 1 16298387976719258730
12838862 33 18335968819442856261
13140716 1 18118688952618704361
13402501 40 18201714089740783232
13533116 47 18341333276281722862
13914758 101 15719940355280427589
14739800 52 18200301135572880296
14790565 3 18335153024005512669
15196674 1 18335987446409901415
15536298 74 18338240340754789375
1601671 61 18260834782394149405
173720 79 17894627058843729650
17980427 23 18263638640731024292
1813 80 16153702073922139590
20645477 70 16988575559122331054
21033648 29 17845356912839202832
21150785 3 16343694440069078741
21267235 1 18337122254321703911
21859007 373 17098038439135273213
22149856 69 18192174658665554321
22182313 1 17750791039173184390
22224240 67 18410856556146786281
23352939 185 14261351357971098930
23402539 116 18410289254748071911
23536379 177 16271932575471241981
23559900 14 18340783576381239382
2916195 48 18130783469040044928
335352 9 18335707143236453172
34797466 226 17060062557426565381
34934 24 18410855443439175975
350125 39 18118125771037982838
3545911 37 18335146353614736102
3680242 22 18334860485319310328
4072396 5 18040431088416638262
4340502 62 18411419488540504078
465052 167 14201113497374340216
474229 33 18335140895112255319
495365 180 17775562023378889398
5104073 3 18190468164731504793
5385378 56 18264496095958974571
5486654 2 18409455777969061205
59755656 215 18337399245115512470
9981440 41 18187649085353072915

> <PUBCHEM_SHAPE_MULTIPOLES>
437.67
13.09
2.31
1.06
3.06
1.53
0.02
-6.67
-2.7
-1.05
-0.38
1.84
-0.23
0.79

> <PUBCHEM_SHAPE_SELFOVERLAP>
941.025

> <PUBCHEM_SHAPE_VOLUME>
243.2

> <PUBCHEM_COORDINATE_TYPE>
2
5
10

$$$$
