489127
  -OEChem-10062122013D

 42 47  0     0  0  0  0  0  0999 V2000
   -2.7900    2.9819    1.2870 F   0  0  0  0  0  0  0  0  0  0  0  0
   -1.6470    4.6169    0.4098 F   0  0  0  0  0  0  0  0  0  0  0  0
   -0.6162    2.9880    1.4396 F   0  0  0  0  0  0  0  0  0  0  0  0
   -1.0703   -4.3373    0.3291 O   0  0  0  0  0  0  0  0  0  0  0  0
    3.3848   -3.1342    0.3857 O   0  0  0  0  0  0  0  0  0  0  0  0
   -1.5758    1.0836   -0.4693 N   0  0  0  0  0  0  0  0  0  0  0  0
    1.1112    1.8096   -0.4340 N   0  0  0  0  0  0  0  0  0  0  0  0
    1.2572   -4.1085    0.4160 N   0  0  0  0  0  0  0  0  0  0  0  0
   -0.6104    0.1546   -0.2867 C   0  0  0  0  0  0  0  0  0  0  0  0
   -0.9003   -1.2389   -0.1028 C   0  0  0  0  0  0  0  0  0  0  0  0
    0.7408    0.5197   -0.2692 C   0  0  0  0  0  0  0  0  0  0  0  0
    1.6883   -0.5396   -0.0697 C   0  0  0  0  0  0  0  0  0  0  0  0
    0.0393   -2.2478    0.0895 C   0  0  0  0  0  0  0  0  0  0  0  0
    1.3801   -1.8856    0.1064 C   0  0  0  0  0  0  0  0  0  0  0  0
   -2.3585   -1.0822   -0.2004 C   0  0  0  0  0  0  0  0  0  0  0  0
   -2.7135    0.2921   -0.4152 C   0  0  0  0  0  0  0  0  0  0  0  0
    2.8712    0.3306   -0.1334 C   0  0  0  0  0  0  0  0  0  0  0  0
    2.4909    1.6982   -0.3477 C   0  0  0  0  0  0  0  0  0  0  0  0
   -1.5780    2.5099   -0.6730 C   0  0  0  0  0  0  0  0  0  0  0  0
   -0.0469   -3.6838    0.2891 C   0  0  0  0  0  0  0  0  0  0  0  0
    2.1729   -3.0844    0.3171 C   0  0  0  0  0  0  0  0  0  0  0  0
   -3.4179   -2.0181   -0.1214 C   0  0  0  0  0  0  0  0  0  0  0  0
   -4.0505    0.6984   -0.5428 C   0  0  0  0  0  0  0  0  0  0  0  0
    4.2555    0.0548   -0.0233 C   0  0  0  0  0  0  0  0  0  0  0  0
    3.4442    2.7233   -0.4452 C   0  0  0  0  0  0  0  0  0  0  0  0
   -1.6505    3.2842    0.6246 C   0  0  0  0  0  0  0  0  0  0  0  0
   -4.7475   -1.6023   -0.2499 C   0  0  0  0  0  0  0  0  0  0  0  0
   -5.0568   -0.2645   -0.4574 C   0  0  0  0  0  0  0  0  0  0  0  0
    5.1977    1.0843   -0.1222 C   0  0  0  0  0  0  0  0  0  0  0  0
    4.7962    2.3974   -0.3302 C   0  0  0  0  0  0  0  0  0  0  0  0
    0.6200    2.6802   -0.4594 H   0  0  0  0  0  0  0  0  0  0  0  0
   -2.4950    2.7492   -1.2263 H   0  0  0  0  0  0  0  0  0  0  0  0
   -0.8296    2.8249   -1.3995 H   0  0  0  0  0  0  0  0  0  0  0  0
   -3.2156   -3.0721    0.0400 H   0  0  0  0  0  0  0  0  0  0  0  0
   -4.3255    1.7367   -0.6974 H   0  0  0  0  0  0  0  0  0  0  0  0
    1.5169   -5.0770    0.5668 H   0  0  0  0  0  0  0  0  0  0  0  0
    4.6075   -0.9589    0.1393 H   0  0  0  0  0  0  0  0  0  0  0  0
    3.1402    3.7531   -0.6075 H   0  0  0  0  0  0  0  0  0  0  0  0
   -5.5462   -2.3366   -0.1858 H   0  0  0  0  0  0  0  0  0  0  0  0
   -6.0963    0.0383   -0.5527 H   0  0  0  0  0  0  0  0  0  0  0  0
    6.2556    0.8514   -0.0351 H   0  0  0  0  0  0  0  0  0  0  0  0
    5.5437    3.1830   -0.4041 H   0  0  0  0  0  0  0  0  0  0  0  0
  1 26  1  0  0  0  0
  2 26  1  0  0  0  0
  3 26  1  0  0  0  0
  4 20  2  0  0  0  0
  5 21  2  0  0  0  0
  6  9  1  0  0  0  0
  6 16  1  0  0  0  0
  6 19  1  0  0  0  0
  7 11  1  0  0  0  0
  7 18  1  0  0  0  0
  7 31  1  0  0  0  0
  8 20  1  0  0  0  0
  8 21  1  0  0  0  0
  8 36  1  0  0  0  0
  9 10  1  0  0  0  0
  9 11  2  0  0  0  0
 10 13  2  0  0  0  0
 10 15  1  0  0  0  0
 11 12  1  0  0  0  0
 12 14  2  0  0  0  0
 12 17  1  0  0  0  0
 13 14  1  0  0  0  0
 13 20  1  0  0  0  0
 14 21  1  0  0  0  0
 15 16  1  0  0  0  0
 15 22  2  0  0  0  0
 16 23  2  0  0  0  0
 17 18  1  0  0  0  0
 17 24  2  0  0  0  0
 18 25  2  0  0  0  0
 19 26  1  0  0  0  0
 19 32  1  0  0  0  0
 19 33  1  0  0  0  0
 22 27  1  0  0  0  0
 22 34  1  0  0  0  0
 23 28  1  0  0  0  0
 23 35  1  0  0  0  0
 24 29  1  0  0  0  0
 24 37  1  0  0  0  0
 25 30  1  0  0  0  0
 25 38  1  0  0  0  0
 27 28  2  0  0  0  0
 27 39  1  0  0  0  0
 28 40  1  0  0  0  0
 29 30  2  0  0  0  0
 29 41  1  0  0  0  0
 30 42  1  0  0  0  0
M  END
> <PUBCHEM_COMPOUND_CID>
489127

> <PUBCHEM_CONFORMER_RMSD>
0.6

> <PUBCHEM_CONFORMER_DIVERSEORDER>
1
2

> <PUBCHEM_MMFF94_PARTIAL_CHARGES>
38
1 -0.34
10 -0.01
11 -0.05
12 -0.01
13 0.09
14 0.09
16 -0.15
18 -0.15
19 0.26
2 -0.34
20 0.54
21 0.54
22 -0.15
23 -0.15
24 -0.15
25 -0.15
26 1.02
27 -0.15
28 -0.15
29 -0.15
3 -0.34
30 -0.15
31 0.27
34 0.15
35 0.15
36 0.37
37 0.15
38 0.15
39 0.15
4 -0.57
40 0.15
41 0.15
42 0.15
5 -0.57
6 -0.04
7 -0.05
8 -0.49
9 -0.05

> <PUBCHEM_EFFECTIVE_ROTOR_COUNT>
2.2

> <PUBCHEM_PHARMACOPHORE_FEATURES>
12
1 4 acceptor
1 5 acceptor
1 6 cation
1 7 cation
1 7 donor
1 8 donor
5 6 9 10 15 16 rings
5 7 11 12 17 18 rings
5 8 13 14 20 21 rings
6 15 16 22 23 27 28 rings
6 17 18 24 25 29 30 rings
6 9 10 11 12 13 14 rings

> <PUBCHEM_HEAVY_ATOM_COUNT>
30

> <PUBCHEM_ATOM_DEF_STEREO_COUNT>
0

> <PUBCHEM_ATOM_UDEF_STEREO_COUNT>
0

> <PUBCHEM_BOND_DEF_STEREO_COUNT>
0

> <PUBCHEM_BOND_UDEF_STEREO_COUNT>
0

> <PUBCHEM_ISOTOPIC_ATOM_COUNT>
0

> <PUBCHEM_COMPONENT_COUNT>
1

> <PUBCHEM_CACTVS_TAUTO_COUNT>
12

> <PUBCHEM_CONFORMER_ID>
000776A700000001

> <PUBCHEM_MMFF94_ENERGY>
118.1047

> <PUBCHEM_FEATURE_SELFOVERLAP>
61.365

> <PUBCHEM_SHAPE_FINGERPRINT>
10006869 2 18200314304438832017
10190108 129 18048918188622540521
10319926 262 17836909468262232256
10411042 1 16822777249875293122
10675989 125 18046613526736556237
10967382 1 18336825398070353671
1100329 8 17978232991085721045
11513181 2 18130223753097109302
12788726 201 18341900739960877368
13140716 1 18122055670667149034
138480 1 17976252448580156230
13911987 19 18263083391078990501
14178342 30 18122891050184944906
14787075 74 18269270338734325205
14790565 3 18336833116353535413
19591789 44 18193274328347640215
20510252 161 18340770437459316128
20642791 178 18119536427835524366
20775438 99 17396366752010583917
20905425 154 18271244915383181463
21421861 104 18263365793863251219
23558518 356 18265903449536340081
23559900 14 18265319617198750567
266924 87 18410005503591629661
283562 15 18412263947530083825
3178227 256 18048329022679789891
335352 9 18335980974052637238
3380486 145 17976559504060069106
350125 39 18337671902086065886
352729 6 18263649635572884246
392239 28 18340493364765763105
469060 322 18339090370933936257
484989 97 17686617249124866759
5486654 2 18337675346439055396
59755656 215 18410014368620458566
6004065 56 17910946165311133335
7097593 13 17761496889609000501
9981440 41 18407757040677266472

> <PUBCHEM_SHAPE_MULTIPOLES>
568.88
8.59
5.57
0.79
1.84
1.28
-0.11
-2.41
1.3
-0.18
-1.6
-0.19
-0.43
-0.76

> <PUBCHEM_SHAPE_SELFOVERLAP>
1329.797

> <PUBCHEM_SHAPE_VOLUME>
291.8

> <PUBCHEM_COORDINATE_TYPE>
2
5
10

$$$$
