11626927
  -OEChem-10062121593D

 51 54  0     0  0  0  0  0  0999 V2000
    3.6062   -1.7316   -1.5116 S   0  0  0  0  0  0  0  0  0  0  0  0
   -0.5556    3.5043   -0.6164 S   0  0  0  0  0  0  0  0  0  0  0  0
    2.3581    1.1211    0.2767 O   0  0  0  0  0  0  0  0  0  0  0  0
   -3.3551   -2.9393   -0.2873 O   0  0  0  0  0  0  0  0  0  0  0  0
   -6.0169   -2.2931    0.0948 O   0  0  0  0  0  0  0  0  0  0  0  0
    2.9306   -0.5199   -1.9497 O   0  0  0  0  0  0  0  0  0  0  0  0
    4.5640   -2.3866   -2.3898 O   0  0  0  0  0  0  0  0  0  0  0  0
   -2.4688    1.8498    0.1713 N   0  0  0  0  0  0  0  0  0  0  0  0
   -4.6062    2.3762    0.4787 N   0  0  0  0  0  0  0  0  0  0  0  0
    3.0602    4.5013   -1.1952 N   0  0  0  0  0  0  0  0  0  0  0  0
   -3.1507    0.6616    0.1108 C   0  0  0  0  0  0  0  0  0  0  0  0
   -4.4826    1.0168    0.3056 C   0  0  0  0  0  0  0  0  0  0  0  0
   -1.1079    2.0302    0.0360 C   0  0  0  0  0  0  0  0  0  0  0  0
    3.7332   -0.6853    1.0236 C   0  0  0  0  0  0  0  0  0  0  0  0
    4.3880   -1.3856    0.0153 C   0  0  0  0  0  0  0  0  0  0  0  0
    2.3263   -0.1969    0.8403 C   0  0  0  0  0  0  0  0  0  0  0  0
   -2.7297   -0.6533   -0.0915 C   0  0  0  0  0  0  0  0  0  0  0  0
   -3.3810    2.8438    0.3922 C   0  0  0  0  0  0  0  0  0  0  0  0
    1.1806    1.7371    0.0640 C   0  0  0  0  0  0  0  0  0  0  0  0
   -0.0940    1.1729    0.3588 C   0  0  0  0  0  0  0  0  0  0  0  0
   -5.4665    0.0136    0.3016 C   0  0  0  0  0  0  0  0  0  0  0  0
   -3.7223   -1.6388   -0.0926 C   0  0  0  0  0  0  0  0  0  0  0  0
   -5.0668   -1.3135    0.1004 C   0  0  0  0  0  0  0  0  0  0  0  0
    4.3744   -0.4202    2.2300 C   0  0  0  0  0  0  0  0  0  0  0  0
    5.6966   -1.8250    0.2150 C   0  0  0  0  0  0  0  0  0  0  0  0
    1.0750    3.0020   -0.4714 C   0  0  0  0  0  0  0  0  0  0  0  0
    2.3643   -2.9363   -1.1042 C   0  0  0  0  0  0  0  0  0  0  0  0
    5.6830   -0.8597    2.4297 C   0  0  0  0  0  0  0  0  0  0  0  0
    6.3442   -1.5622    1.4223 C   0  0  0  0  0  0  0  0  0  0  0  0
    2.1677    3.8273   -0.8698 C   0  0  0  0  0  0  0  0  0  0  0  0
   -3.3260   -3.4069   -1.6330 C   0  0  0  0  0  0  0  0  0  0  0  0
   -6.3221   -2.9038    1.3457 C   0  0  0  0  0  0  0  0  0  0  0  0
    1.6961   -0.8497    0.2512 H   0  0  0  0  0  0  0  0  0  0  0  0
    1.8550   -0.1438    1.8323 H   0  0  0  0  0  0  0  0  0  0  0  0
   -1.6981   -0.9252   -0.2741 H   0  0  0  0  0  0  0  0  0  0  0  0
   -3.1258    3.8896    0.5047 H   0  0  0  0  0  0  0  0  0  0  0  0
   -0.2478    0.2105    0.8255 H   0  0  0  0  0  0  0  0  0  0  0  0
   -6.5125    0.2638    0.4505 H   0  0  0  0  0  0  0  0  0  0  0  0
    3.8736    0.1290    3.0227 H   0  0  0  0  0  0  0  0  0  0  0  0
    6.2379   -2.3758   -0.5484 H   0  0  0  0  0  0  0  0  0  0  0  0
    2.8255   -3.7260   -0.5066 H   0  0  0  0  0  0  0  0  0  0  0  0
    1.5014   -2.5243   -0.5940 H   0  0  0  0  0  0  0  0  0  0  0  0
    2.0205   -3.3699   -2.0481 H   0  0  0  0  0  0  0  0  0  0  0  0
    6.1876   -0.6543    3.3693 H   0  0  0  0  0  0  0  0  0  0  0  0
    7.3630   -1.9046    1.5783 H   0  0  0  0  0  0  0  0  0  0  0  0
   -4.3172   -3.3290   -2.0909 H   0  0  0  0  0  0  0  0  0  0  0  0
   -3.0273   -4.4588   -1.6241 H   0  0  0  0  0  0  0  0  0  0  0  0
   -2.5955   -2.8413   -2.2201 H   0  0  0  0  0  0  0  0  0  0  0  0
   -7.0870   -3.6667    1.1772 H   0  0  0  0  0  0  0  0  0  0  0  0
   -6.7160   -2.1628    2.0486 H   0  0  0  0  0  0  0  0  0  0  0  0
   -5.4344   -3.3862    1.7669 H   0  0  0  0  0  0  0  0  0  0  0  0
  1  6  2  0  0  0  0
  1  7  2  0  0  0  0
  1 15  1  0  0  0  0
  1 27  1  0  0  0  0
  2 13  1  0  0  0  0
  2 26  1  0  0  0  0
  3 16  1  0  0  0  0
  3 19  1  0  0  0  0
  4 22  1  0  0  0  0
  4 31  1  0  0  0  0
  5 23  1  0  0  0  0
  5 32  1  0  0  0  0
  8 11  1  0  0  0  0
  8 13  1  0  0  0  0
  8 18  1  0  0  0  0
  9 12  1  0  0  0  0
  9 18  2  0  0  0  0
 10 30  3  0  0  0  0
 11 12  1  0  0  0  0
 11 17  2  0  0  0  0
 12 21  2  0  0  0  0
 13 20  2  0  0  0  0
 14 15  1  0  0  0  0
 14 16  1  0  0  0  0
 14 24  2  0  0  0  0
 15 25  2  0  0  0  0
 16 33  1  0  0  0  0
 16 34  1  0  0  0  0
 17 22  1  0  0  0  0
 17 35  1  0  0  0  0
 18 36  1  0  0  0  0
 19 20  1  0  0  0  0
 19 26  2  0  0  0  0
 20 37  1  0  0  0  0
 21 23  1  0  0  0  0
 21 38  1  0  0  0  0
 22 23  2  0  0  0  0
 24 28  1  0  0  0  0
 24 39  1  0  0  0  0
 25 29  1  0  0  0  0
 25 40  1  0  0  0  0
 26 30  1  0  0  0  0
 27 41  1  0  0  0  0
 27 42  1  0  0  0  0
 27 43  1  0  0  0  0
 28 29  2  0  0  0  0
 28 44  1  0  0  0  0
 29 45  1  0  0  0  0
 31 46  1  0  0  0  0
 31 47  1  0  0  0  0
 31 48  1  0  0  0  0
 32 49  1  0  0  0  0
 32 50  1  0  0  0  0
 32 51  1  0  0  0  0
M  END
> <PUBCHEM_COMPOUND_CID>
11626927

> <PUBCHEM_CONFORMER_RMSD>
1

> <PUBCHEM_CONFORMER_DIVERSEORDER>
1
234
242
80
132
261
253
70
231
131
100
228
159
192
48
255
40
262
147
191
250
168
190
244
109
81
59
110
124
195
169
136
127
99
112
145
21
50
172
160
140
54
240
268
23
278
154
182
198
237
77
141
5
67
189
220
41
199
227
216
143
271
117
135
128
78
114
246
94
209
273
152
53
106
89
102
82
251
186
38
37
68
86
247
101
226
31
178
146
11
25
207
177
272
235
121
174
257
107
46
185
116
144
183
137
188
14
259
105
254
42
263
32
133
72
176
151
30
217
125
179
229
277
265
71
184
29
74
224
18
88
26
15
166
28
98
196
245
97
113
104
90
202
51
200
260
16
96
194
108
76
139
164
61
91
65
43
126
238
7
170
181
274
221
13
213
83
218
118
165
20
148
63
267
205
153
39
8
233
275
34
215
17
45
167
149
279
206
270
115
19
22
92
222
239
219
171
258
120
156
248
55
57
203
35
138
230
73
161
66
130
10
79
155
122
197
225
85
27
64
223
269
175
69
12
24
163
249
36
158
111
60
208
56
95
180
75
44
157
193
123
2
276
150
252
62
173
212
47
142
241
134
187
3
129
84
119
9
232
243
33
256
162
201
93
266
6
211
49
52
103
4
264
58
204
87
236
210
214

> <PUBCHEM_MMFF94_PARTIAL_CHARGES>
40
1 1.2
10 -0.56
11 -0.15
12 0.23
13 -0.04
14 -0.14
15 -0.01
16 0.42
17 -0.15
18 0.04
19 0.06
2 -0.08
20 -0.15
21 -0.15
22 0.08
23 0.08
24 -0.15
25 -0.15
26 0.06
27 0.11
28 -0.15
29 -0.15
3 -0.34
30 0.54
31 0.28
32 0.28
35 0.15
36 0.15
37 0.15
38 0.15
39 0.15
4 -0.36
40 0.15
44 0.15
45 0.15
5 -0.36
6 -0.65
7 -0.65
8 0.38
9 -0.57

> <PUBCHEM_EFFECTIVE_ROTOR_COUNT>
7

> <PUBCHEM_PHARMACOPHORE_FEATURES>
11
1 10 acceptor
1 3 acceptor
1 4 acceptor
1 5 acceptor
1 6 acceptor
1 7 acceptor
3 8 9 18 cation
5 2 13 19 20 26 rings
5 8 9 11 12 18 rings
6 11 12 17 21 22 23 rings
6 14 15 24 25 28 29 rings

> <PUBCHEM_HEAVY_ATOM_COUNT>
32

> <PUBCHEM_ATOM_DEF_STEREO_COUNT>
0

> <PUBCHEM_ATOM_UDEF_STEREO_COUNT>
0

> <PUBCHEM_BOND_DEF_STEREO_COUNT>
0

> <PUBCHEM_BOND_UDEF_STEREO_COUNT>
0

> <PUBCHEM_ISOTOPIC_ATOM_COUNT>
0

> <PUBCHEM_COMPONENT_COUNT>
1

> <PUBCHEM_CACTVS_TAUTO_COUNT>
1

> <PUBCHEM_CONFORMER_ID>
00B169AF00000001

> <PUBCHEM_MMFF94_ENERGY>
100.4179

> <PUBCHEM_FEATURE_SELFOVERLAP>
55.958

> <PUBCHEM_SHAPE_FINGERPRINT>
10050765 1 18334011718388965861
10169797 241 18117298027718618090
10622 236 17982152711669497567
11135609 12 18413108377018427211
11135926 11 17976813504358009445
117089 54 18189904304330556163
11963148 33 17760368086516042043
12107183 9 18337393734751761969
12166972 35 17312818273593537098
12422481 6 17917134053749350958
13402501 40 18058450898363809246
13540713 5 18336277811764135025
13782708 43 17914892033824404542
14114206 34 16733255755964982497
14910302 57 18124596375539788622
16628084 112 18122897901497539703
17492 89 18263082274872601481
1813 80 18261678052226505164
19301679 30 18339652252131298131
1979834 28 17846504746363648286
19841028 212 18116715317475684619
21781055 127 17630629846534740409
23559900 14 18342458123383663665
3383291 50 18413386528382170787
3882209 13 17553449854918473559
4073 2 18059008368149418384
4280585 95 18261947453865296480
4394409 98 18042952204460776399
4461854 278 18201162169158395846
50009960 94 18043792381046286691
6058803 2 18265906937578045685
613672 6 18340475665100002469
6823239 73 18201726098505817406

> <PUBCHEM_SHAPE_MULTIPOLES>
621.95
15.45
5.22
1.7
2.11
3.42
0.04
-13.53
-5.5
1.75
2.21
-2.99
-1.11
-0.43

> <PUBCHEM_SHAPE_SELFOVERLAP>
1337.852

> <PUBCHEM_SHAPE_VOLUME>
346.3

> <PUBCHEM_COORDINATE_TYPE>
2
5
10

$$$$
