11164136
  -OEChem-10052115173D

 47 50  0     0  0  0  0  0  0999 V2000
   -2.4436   -0.5990    1.8923 O   0  0  0  0  0  0  0  0  0  0  0  0
    5.4673    2.4682    0.0527 N   0  0  0  0  0  0  0  0  0  0  0  0
    4.2743    2.9764    0.4036 N   0  0  0  0  0  0  0  0  0  0  0  0
   -3.6254   -1.0395   -0.0882 N   0  0  0  0  0  0  0  0  0  0  0  0
    2.1262    1.9599    0.6051 N   0  0  0  0  0  0  0  0  0  0  0  0
    3.7617   -0.5978   -0.2896 C   0  0  0  0  0  0  0  0  0  0  0  0
    4.1206    0.7414   -0.0633 C   0  0  0  0  0  0  0  0  0  0  0  0
    2.3970   -1.0329   -0.1135 C   0  0  0  0  0  0  0  0  0  0  0  0
    5.4434    1.1313   -0.2402 C   0  0  0  0  0  0  0  0  0  0  0  0
   -0.2442   -1.8765    0.2270 C   0  0  0  0  0  0  0  0  0  0  0  0
    4.7569   -1.4988   -0.6886 C   0  0  0  0  0  0  0  0  0  0  0  0
    3.4575    1.9231    0.3319 C   0  0  0  0  0  0  0  0  0  0  0  0
    1.9654   -1.5013    1.1295 C   0  0  0  0  0  0  0  0  0  0  0  0
    1.5029   -0.9881   -1.1856 C   0  0  0  0  0  0  0  0  0  0  0  0
   -1.6543   -2.3268    0.4088 C   0  0  0  0  0  0  0  0  0  0  0  0
    0.6465   -1.9225    1.2994 C   0  0  0  0  0  0  0  0  0  0  0  0
    0.1840   -1.4093   -1.0155 C   0  0  0  0  0  0  0  0  0  0  0  0
    6.4508    0.2493   -0.6373 C   0  0  0  0  0  0  0  0  0  0  0  0
    6.0779   -1.0804   -0.8588 C   0  0  0  0  0  0  0  0  0  0  0  0
   -2.6077   -1.2173    0.8454 C   0  0  0  0  0  0  0  0  0  0  0  0
   -4.6923   -0.1112   -0.0352 C   0  0  0  0  0  0  0  0  0  0  0  0
   -5.6164   -0.0810   -1.0663 C   0  0  0  0  0  0  0  0  0  0  0  0
   -6.6676    0.8344   -1.0139 C   0  0  0  0  0  0  0  0  0  0  0  0
   -4.7892    0.7479    1.0469 C   0  0  0  0  0  0  0  0  0  0  0  0
   -6.7794    1.7066    0.0690 C   0  0  0  0  0  0  0  0  0  0  0  0
   -5.8403    1.6633    1.0994 C   0  0  0  0  0  0  0  0  0  0  0  0
   -7.6722    0.8807   -2.1150 C   0  0  0  0  0  0  0  0  0  0  0  0
    4.5117   -2.5431   -0.8719 H   0  0  0  0  0  0  0  0  0  0  0  0
    2.6462   -1.5429    1.9767 H   0  0  0  0  0  0  0  0  0  0  0  0
    1.8195   -0.6257   -2.1610 H   0  0  0  0  0  0  0  0  0  0  0  0
   -2.0021   -2.8155   -0.5097 H   0  0  0  0  0  0  0  0  0  0  0  0
   -1.7045   -3.1094    1.1776 H   0  0  0  0  0  0  0  0  0  0  0  0
    0.3250   -2.2825    2.2732 H   0  0  0  0  0  0  0  0  0  0  0  0
   -0.5013   -1.3665   -1.8580 H   0  0  0  0  0  0  0  0  0  0  0  0
    7.4762    0.5760   -0.7690 H   0  0  0  0  0  0  0  0  0  0  0  0
    6.8312   -1.8002   -1.1691 H   0  0  0  0  0  0  0  0  0  0  0  0
    6.2649    3.0913    0.0324 H   0  0  0  0  0  0  0  0  0  0  0  0
   -3.6214   -1.6334   -0.9144 H   0  0  0  0  0  0  0  0  0  0  0  0
    1.6747    2.8247    0.8875 H   0  0  0  0  0  0  0  0  0  0  0  0
    1.5018    1.1651    0.5523 H   0  0  0  0  0  0  0  0  0  0  0  0
   -5.5269   -0.7601   -1.9106 H   0  0  0  0  0  0  0  0  0  0  0  0
   -4.1047    0.7767    1.8815 H   0  0  0  0  0  0  0  0  0  0  0  0
   -7.5927    2.4256    0.1207 H   0  0  0  0  0  0  0  0  0  0  0  0
   -5.9283    2.3433    1.9419 H   0  0  0  0  0  0  0  0  0  0  0  0
   -7.3352    1.5621   -2.9025 H   0  0  0  0  0  0  0  0  0  0  0  0
   -7.8253   -0.1123   -2.5510 H   0  0  0  0  0  0  0  0  0  0  0  0
   -8.6461    1.2229   -1.7487 H   0  0  0  0  0  0  0  0  0  0  0  0
  1 20  2  0  0  0  0
  2  3  1  0  0  0  0
  2  9  1  0  0  0  0
  2 37  1  0  0  0  0
  3 12  2  0  0  0  0
  4 20  1  0  0  0  0
  4 21  1  0  0  0  0
  4 38  1  0  0  0  0
  5 12  1  0  0  0  0
  5 39  1  0  0  0  0
  5 40  1  0  0  0  0
  6  7  2  0  0  0  0
  6  8  1  0  0  0  0
  6 11  1  0  0  0  0
  7  9  1  0  0  0  0
  7 12  1  0  0  0  0
  8 13  2  0  0  0  0
  8 14  1  0  0  0  0
  9 18  2  0  0  0  0
 10 15  1  0  0  0  0
 10 16  2  0  0  0  0
 10 17  1  0  0  0  0
 11 19  2  0  0  0  0
 11 28  1  0  0  0  0
 13 16  1  0  0  0  0
 13 29  1  0  0  0  0
 14 17  2  0  0  0  0
 14 30  1  0  0  0  0
 15 20  1  0  0  0  0
 15 31  1  0  0  0  0
 15 32  1  0  0  0  0
 16 33  1  0  0  0  0
 17 34  1  0  0  0  0
 18 19  1  0  0  0  0
 18 35  1  0  0  0  0
 19 36  1  0  0  0  0
 21 22  1  0  0  0  0
 21 24  2  0  0  0  0
 22 23  2  0  0  0  0
 22 41  1  0  0  0  0
 23 25  1  0  0  0  0
 23 27  1  0  0  0  0
 24 26  1  0  0  0  0
 24 42  1  0  0  0  0
 25 26  2  0  0  0  0
 25 43  1  0  0  0  0
 26 44  1  0  0  0  0
 27 45  1  0  0  0  0
 27 46  1  0  0  0  0
 27 47  1  0  0  0  0
M  END
> <PUBCHEM_COMPOUND_CID>
11164136

> <PUBCHEM_CONFORMER_RMSD>
0.8

> <PUBCHEM_CONFORMER_DIVERSEORDER>
2
30
38
16
42
25
10
24
36
7
18
12
26
15
37
19
27
14
40
28
8
13
20
29
35
45
23
41
17
3
34
32
11
9
22
39
31
1
5
43
21
33
44
4
6

> <PUBCHEM_MMFF94_PARTIAL_CHARGES>
39
1 -0.57
10 -0.14
11 -0.15
12 0.37
13 -0.15
14 -0.15
15 0.2
16 -0.15
17 -0.15
18 -0.15
19 -0.15
2 0.3
20 0.57
21 0.12
22 -0.15
23 -0.14
24 -0.15
25 -0.15
26 -0.15
27 0.14
28 0.15
29 0.15
3 -0.71
30 0.15
33 0.15
34 0.15
35 0.15
36 0.15
37 0.27
38 0.37
39 0.4
4 -0.55
40 0.4
41 0.15
42 0.15
43 0.15
44 0.15
5 -0.88
9 -0.15

> <PUBCHEM_EFFECTIVE_ROTOR_COUNT>
5

> <PUBCHEM_PHARMACOPHORE_FEATURES>
9
1 1 acceptor
1 2 donor
1 4 donor
1 5 donor
3 3 5 12 cation
5 2 3 7 9 12 rings
6 21 22 23 24 25 26 rings
6 6 7 9 11 18 19 rings
6 8 10 13 14 16 17 rings

> <PUBCHEM_HEAVY_ATOM_COUNT>
27

> <PUBCHEM_ATOM_DEF_STEREO_COUNT>
0

> <PUBCHEM_ATOM_UDEF_STEREO_COUNT>
0

> <PUBCHEM_BOND_DEF_STEREO_COUNT>
0

> <PUBCHEM_BOND_UDEF_STEREO_COUNT>
0

> <PUBCHEM_ISOTOPIC_ATOM_COUNT>
0

> <PUBCHEM_COMPONENT_COUNT>
1

> <PUBCHEM_CACTVS_TAUTO_COUNT>
10

> <PUBCHEM_CONFORMER_ID>
00AA59E800000002

> <PUBCHEM_MMFF94_ENERGY>
77.8865

> <PUBCHEM_FEATURE_SELFOVERLAP>
45.763

> <PUBCHEM_SHAPE_FINGERPRINT>
10 15 15502665900896329599
10006869 2 17968924297726885830
10674148 151 15647061448222756282
10763959 59 18336270119355719500
11089746 13 18410293605523744054
11386260 185 18202006521574542548
12778500 126 17313372423622965888
13103583 49 13406799947528066203
13402501 40 18408604755800740709
13560911 23 15140973855244132877
13668630 136 12967119520162768391
13690498 29 17630876304896216655
13878862 14 18188473710214645758
14556957 393 17131561582895101553
14681490 219 18271805692627288489
14950920 106 13768220419268785695
15142383 8 18186519913324202012
15183329 4 18343866597609442217
15238133 3 16877953740684349623
15510800 12 12247673920338752661
15537594 2 12035730954824198706
16110190 28 11530484437018103633
18335252 114 18341047433059216630
20157964 124 18272655636299888070
20715895 44 18343587347958677234
21033648 144 18187359914332881591
21033648 29 17895196657506700314
21279426 13 18411427232334818802
21475661 188 18261674891072033224
21774942 28 18059296452981038520
2748736 6 18408598171795133025
2838139 119 18341616992882773697
335352 9 18341899580910083710
3388396 114 16127252388742982056
3472631 163 18411981364815664863
3663271 9 12468642720501100437
4144715 1 18264221364207947802
4340502 62 11386372573689955286
50009960 94 11958357089455764444
5104073 3 17821445772560116755
5718773 13 11455350371207885788
58902169 19 17917704686897787341
6328613 192 18261685864961550732
7970288 3 9583226241813999961
999808 66 11239993478255965069

> <PUBCHEM_SHAPE_MULTIPOLES>
529.85
20.41
2.64
1.38
20.16
0.96
0.11
12.07
6.96
-2.28
-0.6
1.92
-0.14
0.84

> <PUBCHEM_SHAPE_SELFOVERLAP>
1176.761

> <PUBCHEM_SHAPE_VOLUME>
284.2

> <PUBCHEM_COORDINATE_TYPE>
2
5
10

$$$$
