11338239
  -OEChem-10052115183D

 48 51  0     0  0  0  0  0  0999 V2000
   -7.0551    1.7439   -0.5076 S   0  0  0  0  0  0  0  0  0  0  0  0
    2.3145    0.3788    0.9803 O   0  0  0  0  0  0  0  0  0  0  0  0
    1.3537   -0.8492   -0.7685 N   0  0  0  0  0  0  0  0  0  0  0  0
    3.6448   -0.5642   -0.6960 N   0  0  0  0  0  0  0  0  0  0  0  0
   -5.6805    2.3262   -1.2242 N   0  0  0  0  0  0  0  0  0  0  0  0
   -3.4098    1.7407   -1.3711 N   0  0  0  0  0  0  0  0  0  0  0  0
   -4.1502   -0.6611    0.4108 C   0  0  0  0  0  0  0  0  0  0  0  0
   -4.9638    0.3784   -0.0912 C   0  0  0  0  0  0  0  0  0  0  0  0
   -2.7376   -0.7093    0.1080 C   0  0  0  0  0  0  0  0  0  0  0  0
   -6.3219    0.3753    0.2339 C   0  0  0  0  0  0  0  0  0  0  0  0
   -4.7135   -1.6588    1.2127 C   0  0  0  0  0  0  0  0  0  0  0  0
   -2.2882   -1.3923   -1.0230 C   0  0  0  0  0  0  0  0  0  0  0  0
   -1.8211   -0.0726    0.9461 C   0  0  0  0  0  0  0  0  0  0  0  0
   -4.6759    1.5118   -0.9182 C   0  0  0  0  0  0  0  0  0  0  0  0
   -0.0098   -0.8026   -0.4763 C   0  0  0  0  0  0  0  0  0  0  0  0
   -6.8974   -0.6209    1.0377 C   0  0  0  0  0  0  0  0  0  0  0  0
   -0.9249   -1.4388   -1.3151 C   0  0  0  0  0  0  0  0  0  0  0  0
   -0.4578   -0.1194    0.6542 C   0  0  0  0  0  0  0  0  0  0  0  0
   -6.0693   -1.6366    1.5213 C   0  0  0  0  0  0  0  0  0  0  0  0
    4.9500   -0.1789   -0.3092 C   0  0  0  0  0  0  0  0  0  0  0  0
    6.4082    0.9552    1.2213 C   0  0  0  0  0  0  0  0  0  0  0  0
    7.3166   -0.1876   -0.7037 C   0  0  0  0  0  0  0  0  0  0  0  0
    6.0295   -0.5666   -1.0859 C   0  0  0  0  0  0  0  0  0  0  0  0
    5.1212    0.5766    0.8391 C   0  0  0  0  0  0  0  0  0  0  0  0
    7.5060    0.5735    0.4498 C   0  0  0  0  0  0  0  0  0  0  0  0
    2.4314   -0.2746   -0.0515 C   0  0  0  0  0  0  0  0  0  0  0  0
    6.6106    1.7694    2.4545 C   0  0  0  0  0  0  0  0  0  0  0  0
    8.4903   -0.5963   -1.5283 C   0  0  0  0  0  0  0  0  0  0  0  0
   -4.0991   -2.4657    1.6070 H   0  0  0  0  0  0  0  0  0  0  0  0
   -2.9881   -1.8931   -1.6877 H   0  0  0  0  0  0  0  0  0  0  0  0
   -2.1550    0.4647    1.8309 H   0  0  0  0  0  0  0  0  0  0  0  0
   -7.9552   -0.6083    1.2811 H   0  0  0  0  0  0  0  0  0  0  0  0
   -0.5898   -1.9743   -2.1998 H   0  0  0  0  0  0  0  0  0  0  0  0
    0.1853    0.3982    1.3514 H   0  0  0  0  0  0  0  0  0  0  0  0
   -6.4920   -2.4191    2.1461 H   0  0  0  0  0  0  0  0  0  0  0  0
    5.8799   -1.1583   -1.9855 H   0  0  0  0  0  0  0  0  0  0  0  0
    4.3192    0.9048    1.4833 H   0  0  0  0  0  0  0  0  0  0  0  0
    8.5101    0.8682    0.7458 H   0  0  0  0  0  0  0  0  0  0  0  0
    1.6030   -1.3653   -1.6087 H   0  0  0  0  0  0  0  0  0  0  0  0
    3.5873   -1.1181   -1.5470 H   0  0  0  0  0  0  0  0  0  0  0  0
    5.8919    2.5950    2.4944 H   0  0  0  0  0  0  0  0  0  0  0  0
    6.4833    1.1435    3.3435 H   0  0  0  0  0  0  0  0  0  0  0  0
    7.6120    2.2117    2.4880 H   0  0  0  0  0  0  0  0  0  0  0  0
    8.3026   -1.5459   -2.0409 H   0  0  0  0  0  0  0  0  0  0  0  0
    8.7070    0.1703   -2.2789 H   0  0  0  0  0  0  0  0  0  0  0  0
    9.3796   -0.7397   -0.9053 H   0  0  0  0  0  0  0  0  0  0  0  0
   -3.2190    2.5489   -1.9568 H   0  0  0  0  0  0  0  0  0  0  0  0
   -2.5907    1.1805   -1.1920 H   0  0  0  0  0  0  0  0  0  0  0  0
  1  5  1  0  0  0  0
  1 10  1  0  0  0  0
  2 26  2  0  0  0  0
  3 15  1  0  0  0  0
  3 26  1  0  0  0  0
  3 39  1  0  0  0  0
  4 20  1  0  0  0  0
  4 26  1  0  0  0  0
  4 40  1  0  0  0  0
  5 14  2  0  0  0  0
  6 14  1  0  0  0  0
  6 47  1  0  0  0  0
  6 48  1  0  0  0  0
  7  8  2  0  0  0  0
  7  9  1  0  0  0  0
  7 11  1  0  0  0  0
  8 10  1  0  0  0  0
  8 14  1  0  0  0  0
  9 12  2  0  0  0  0
  9 13  1  0  0  0  0
 10 16  2  0  0  0  0
 11 19  2  0  0  0  0
 11 29  1  0  0  0  0
 12 17  1  0  0  0  0
 12 30  1  0  0  0  0
 13 18  2  0  0  0  0
 13 31  1  0  0  0  0
 15 17  2  0  0  0  0
 15 18  1  0  0  0  0
 16 19  1  0  0  0  0
 16 32  1  0  0  0  0
 17 33  1  0  0  0  0
 18 34  1  0  0  0  0
 19 35  1  0  0  0  0
 20 23  2  0  0  0  0
 20 24  1  0  0  0  0
 21 24  2  0  0  0  0
 21 25  1  0  0  0  0
 21 27  1  0  0  0  0
 22 23  1  0  0  0  0
 22 25  2  0  0  0  0
 22 28  1  0  0  0  0
 23 36  1  0  0  0  0
 24 37  1  0  0  0  0
 25 38  1  0  0  0  0
 27 41  1  0  0  0  0
 27 42  1  0  0  0  0
 27 43  1  0  0  0  0
 28 44  1  0  0  0  0
 28 45  1  0  0  0  0
 28 46  1  0  0  0  0
M  END
> <PUBCHEM_COMPOUND_CID>
11338239

> <PUBCHEM_CONFORMER_RMSD>
0.8

> <PUBCHEM_CONFORMER_DIVERSEORDER>
1
7
8
6
10
9
4
5
2
3

> <PUBCHEM_MMFF94_PARTIAL_CHARGES>
39
1 0.18
10 0.04
11 -0.15
12 -0.15
13 -0.15
14 0.37
15 0.12
16 -0.15
17 -0.15
18 -0.15
19 -0.15
2 -0.57
20 0.12
21 -0.14
22 -0.14
23 -0.15
24 -0.15
25 -0.15
26 0.69
27 0.14
28 0.14
29 0.15
3 -0.55
30 0.15
31 0.15
32 0.15
33 0.15
34 0.15
35 0.15
36 0.15
37 0.15
38 0.15
39 0.37
4 -0.55
40 0.37
47 0.4
48 0.4
5 -0.51
6 -0.88

> <PUBCHEM_EFFECTIVE_ROTOR_COUNT>
5

> <PUBCHEM_PHARMACOPHORE_FEATURES>
9
1 2 acceptor
1 3 donor
1 4 donor
1 6 donor
3 5 6 14 cation
5 1 5 8 10 14 rings
6 20 21 22 23 24 25 rings
6 7 8 10 11 16 19 rings
6 9 12 13 15 17 18 rings

> <PUBCHEM_HEAVY_ATOM_COUNT>
28

> <PUBCHEM_ATOM_DEF_STEREO_COUNT>
0

> <PUBCHEM_ATOM_UDEF_STEREO_COUNT>
0

> <PUBCHEM_BOND_DEF_STEREO_COUNT>
0

> <PUBCHEM_BOND_UDEF_STEREO_COUNT>
0

> <PUBCHEM_ISOTOPIC_ATOM_COUNT>
0

> <PUBCHEM_COMPONENT_COUNT>
1

> <PUBCHEM_CACTVS_TAUTO_COUNT>
12

> <PUBCHEM_CONFORMER_ID>
00AD01FF00000001

> <PUBCHEM_MMFF94_ENERGY>
91.9165

> <PUBCHEM_FEATURE_SELFOVERLAP>
45.778

> <PUBCHEM_SHAPE_FINGERPRINT>
10 15 18410290346028188272
10066227 112 17917989495017110256
10299344 5 16370725937605941546
10319926 262 18113897203851827241
10411042 1 17753344351347519275
10554248 39 16343708751074143484
11007060 377 18272080656375425839
11135926 11 17203333286286813743
12236239 1 16298389063409307339
13668630 136 9007060175342154072
13911987 19 17632289039734618919
14028597 1 16370997460896235192
14251764 18 16226050002789411502
14849402 71 16443641193594922868
14856354 85 17603591863264255635
14933364 13 18260551121452982854
15119646 104 14979964631840882636
15183329 4 17346597452663132398
15328684 2 16878212074821030600
15352257 5 9799697008342412516
15419008 47 18412543206578483280
15716309 27 14923940150107063643
1577012 14 16588023502760978048
15849732 13 18413111671173940884
19377110 9 16370998590392746264
20281389 69 18201719570076263386
21033648 29 18340758308286744289
21130935 74 17458058253601385202
21792961 116 18272093747630390270
21859007 373 18340197510413164300
23081809 10 16298383569977291906
23522609 53 14692027919535589866
23559900 14 16701726263473743994
23576562 1 17987782138384380485
249057 3 17489591178197955430
2838139 119 16773799194755314168
328310 630 16917070013661863944
3663271 9 17022899047544437104
397830 11 18126850619232485898
4073 2 17313112933724481306
4093350 32 18261948553999722610
504843 32 17203039798360585759
5758199 1 16370729236098549130
58083652 198 15647051620335108367
58260988 114 13480002159652593441
58902169 19 15123787396889457576
59755656 520 17203609302629116399
6669772 16 17846507989206778695
6691757 9 17458634419833548051
9953998 17 18271534173991132651
9962374 69 13190631606305126874

> <PUBCHEM_SHAPE_MULTIPOLES>
554.28
26.4
1.74
1.61
28.28
0.5
0.21
6.37
0.28
-0.73
-0.09
-0.6
0.36
4.68

> <PUBCHEM_SHAPE_SELFOVERLAP>
1213.335

> <PUBCHEM_SHAPE_VOLUME>
303.2

> <PUBCHEM_COORDINATE_TYPE>
2
5
10

$$$$
