49831039
  -OEChem-10062121543D

 24 25  0     0  0  0  0  0  0999 V2000
   -0.5859    1.7036   -0.0011 S   0  0  0  0  0  0  0  0  0  0  0  0
   -3.6083   -0.7906    0.0137 O   0  0  0  0  0  0  0  0  0  0  0  0
    2.1688    1.0911    0.0018 N   0  0  0  0  0  0  0  0  0  0  0  0
    2.8868   -0.0684    0.0018 N   0  0  0  0  0  0  0  0  0  0  0  0
   -1.0307   -2.2121   -0.0047 N   0  0  0  0  0  0  0  0  0  0  0  0
   -3.5172    1.5007   -0.0035 N   0  0  0  0  0  0  0  0  0  0  0  0
    0.6878   -0.4671   -0.0011 C   0  0  0  0  0  0  0  0  0  0  0  0
    0.8395    0.8592    0.0000 C   0  0  0  0  0  0  0  0  0  0  0  0
    1.9460   -1.0345    0.0001 C   0  0  0  0  0  0  0  0  0  0  0  0
   -0.6230   -0.9234   -0.0031 C   0  0  0  0  0  0  0  0  0  0  0  0
   -1.4654    0.1868   -0.0033 C   0  0  0  0  0  0  0  0  0  0  0  0
    2.3441   -2.4499    0.0005 C   0  0  0  0  0  0  0  0  0  0  0  0
    2.8509    2.3616    0.0022 C   0  0  0  0  0  0  0  0  0  0  0  0
   -2.8935    0.2431   -0.0031 C   0  0  0  0  0  0  0  0  0  0  0  0
    1.9548   -2.9599    0.8875 H   0  0  0  0  0  0  0  0  0  0  0  0
    3.4332   -2.5661    0.0021 H   0  0  0  0  0  0  0  0  0  0  0  0
    1.9574   -2.9597   -0.8878 H   0  0  0  0  0  0  0  0  0  0  0  0
    3.4722    2.4166    0.8995 H   0  0  0  0  0  0  0  0  0  0  0  0
    3.4705    2.4180   -0.8963 H   0  0  0  0  0  0  0  0  0  0  0  0
    2.1234    3.1760    0.0036 H   0  0  0  0  0  0  0  0  0  0  0  0
   -0.3837   -2.9944   -0.0045 H   0  0  0  0  0  0  0  0  0  0  0  0
   -2.0116   -2.4757   -0.0062 H   0  0  0  0  0  0  0  0  0  0  0  0
   -4.5287    1.5800    0.0026 H   0  0  0  0  0  0  0  0  0  0  0  0
   -2.9862    2.3656   -0.0096 H   0  0  0  0  0  0  0  0  0  0  0  0
  1  8  1  0  0  0  0
  1 11  1  0  0  0  0
  2 14  2  0  0  0  0
  3  4  1  0  0  0  0
  3  8  1  0  0  0  0
  3 13  1  0  0  0  0
  4  9  2  0  0  0  0
  5 10  1  0  0  0  0
  5 21  1  0  0  0  0
  5 22  1  0  0  0  0
  6 14  1  0  0  0  0
  6 23  1  0  0  0  0
  6 24  1  0  0  0  0
  7  8  2  0  0  0  0
  7  9  1  0  0  0  0
  7 10  1  0  0  0  0
  9 12  1  0  0  0  0
 10 11  2  0  0  0  0
 11 14  1  0  0  0  0
 12 15  1  0  0  0  0
 12 16  1  0  0  0  0
 12 17  1  0  0  0  0
 13 18  1  0  0  0  0
 13 19  1  0  0  0  0
 13 20  1  0  0  0  0
M  END
> <PUBCHEM_COMPOUND_CID>
49831039

> <PUBCHEM_CONFORMER_RMSD>
0.4

> <PUBCHEM_CONFORMER_DIVERSEORDER>
1
2
3
4

> <PUBCHEM_MMFF94_PARTIAL_CHARGES>
17
1 -0.08
10 0.08
11 -0.05
12 0.18
13 0.26
14 0.71
2 -0.57
21 0.4
22 0.4
23 0.37
24 0.37
3 0.31
4 -0.71
5 -0.88
6 -0.8
8 -0.11
9 0.11

> <PUBCHEM_EFFECTIVE_ROTOR_COUNT>
1

> <PUBCHEM_PHARMACOPHORE_FEATURES>
7
1 2 acceptor
1 4 acceptor
1 5 cation
1 5 donor
1 6 donor
5 1 7 8 10 11 rings
5 3 4 7 8 9 rings

> <PUBCHEM_HEAVY_ATOM_COUNT>
14

> <PUBCHEM_ATOM_DEF_STEREO_COUNT>
0

> <PUBCHEM_ATOM_UDEF_STEREO_COUNT>
0

> <PUBCHEM_BOND_DEF_STEREO_COUNT>
0

> <PUBCHEM_BOND_UDEF_STEREO_COUNT>
0

> <PUBCHEM_ISOTOPIC_ATOM_COUNT>
0

> <PUBCHEM_COMPONENT_COUNT>
1

> <PUBCHEM_CACTVS_TAUTO_COUNT>
5

> <PUBCHEM_CONFORMER_ID>
02F85C7F00000001

> <PUBCHEM_MMFF94_ENERGY>
31.907

> <PUBCHEM_FEATURE_SELFOVERLAP>
35.751

> <PUBCHEM_SHAPE_FINGERPRINT>
10608611 8 18408882945095619893
10967382 1 18410575127618039620
10980938 120 18410012169127606728
11471102 20 18265891367782644213
12423570 1 12460248034932530922
12524768 44 18334575754424728694
13140716 1 18338230595884996896
13380535 21 18337684125351987182
13380535 76 18336823220774804362
13897977 150 18338514243640710581
14144814 61 18410573994005155953
14325111 11 18410573981236460869
14648413 74 18408889550818377978
14897335 6 18339637961856985212
15442244 35 18196092144631569505
16945 1 18410855451865313804
18186145 218 18342462495675753605
193761 8 18338799025990230414
20645477 70 18411413986872267807
20871998 22 17981888545347555910
21501502 16 18339635754117337478
2334 1 18050568744464585448
23402655 69 18342449366403750813
23463225 33 18338798905630691999
23552423 10 18408886243545892846
23559900 14 18343018853455736170
2748010 2 18336263453376357669
3071541 12 18411423895177040652
5084963 1 18058163929912456043
528886 8 18267298918754620808
53812653 166 18127409179513033136
63268167 104 18341615901797641401
7364860 26 18341894078534685646

> <PUBCHEM_SHAPE_MULTIPOLES>
266.17
5.17
2.5
0.59
2.78
0.21
0
-0.75
0.01
-1.54
0
-0.02
-0.02
0

> <PUBCHEM_SHAPE_SELFOVERLAP>
570.311

> <PUBCHEM_SHAPE_VOLUME>
151.3

> <PUBCHEM_COORDINATE_TYPE>
2
5
10

$$$$
