24203040
  -OEChem-10052115183D

 21 23  0     0  0  0  0  0  0999 V2000
   -0.3302   -2.0667   -0.0003 S   0  0  0  0  0  0  0  0  0  0  0  0
   -1.0412    1.7511    0.0003 N   0  0  0  0  0  0  0  0  0  0  0  0
    2.3142   -1.7897    0.0002 N   0  0  0  0  0  0  0  0  0  0  0  0
    3.2777    0.4333    0.0001 N   0  0  0  0  0  0  0  0  0  0  0  0
   -3.2250    0.7098    0.0004 N   0  0  0  0  0  0  0  0  0  0  0  0
    1.9537    2.4040   -0.0013 N   0  0  0  0  0  0  0  0  0  0  0  0
   -3.5088   -1.6523   -0.0009 N   0  0  0  0  0  0  0  0  0  0  0  0
    0.9037    0.1988    0.0001 C   0  0  0  0  0  0  0  0  0  0  0  0
   -0.4984    0.5029    0.0002 C   0  0  0  0  0  0  0  0  0  0  0  0
   -1.2893   -0.6461    0.0000 C   0  0  0  0  0  0  0  0  0  0  0  0
    1.1165   -1.1724    0.0000 C   0  0  0  0  0  0  0  0  0  0  0  0
    2.0523    0.9994    0.0000 C   0  0  0  0  0  0  0  0  0  0  0  0
   -2.6737   -0.5196    0.0002 C   0  0  0  0  0  0  0  0  0  0  0  0
   -2.3842    1.7599    0.0005 C   0  0  0  0  0  0  0  0  0  0  0  0
    3.3328   -0.9123    0.0004 C   0  0  0  0  0  0  0  0  0  0  0  0
   -2.8510    2.7385    0.0005 H   0  0  0  0  0  0  0  0  0  0  0  0
    4.3278   -1.3432    0.0005 H   0  0  0  0  0  0  0  0  0  0  0  0
    1.0504    2.8576   -0.0010 H   0  0  0  0  0  0  0  0  0  0  0  0
    2.8013    2.9552   -0.0010 H   0  0  0  0  0  0  0  0  0  0  0  0
   -3.1089   -2.5808   -0.0012 H   0  0  0  0  0  0  0  0  0  0  0  0
   -4.5117   -1.5258   -0.0009 H   0  0  0  0  0  0  0  0  0  0  0  0
  1 10  1  0  0  0  0
  1 11  1  0  0  0  0
  2  9  1  0  0  0  0
  2 14  2  0  0  0  0
  3 11  2  0  0  0  0
  3 15  1  0  0  0  0
  4 12  1  0  0  0  0
  4 15  2  0  0  0  0
  5 13  2  0  0  0  0
  5 14  1  0  0  0  0
  6 12  1  0  0  0  0
  6 18  1  0  0  0  0
  6 19  1  0  0  0  0
  7 13  1  0  0  0  0
  7 20  1  0  0  0  0
  7 21  1  0  0  0  0
  8  9  1  0  0  0  0
  8 11  1  0  0  0  0
  8 12  2  0  0  0  0
  9 10  2  0  0  0  0
 10 13  1  0  0  0  0
 14 16  1  0  0  0  0
 15 17  1  0  0  0  0
M  END
> <PUBCHEM_COMPOUND_CID>
24203040

> <PUBCHEM_CONFORMER_RMSD>
0.4

> <PUBCHEM_CONFORMER_DIVERSEORDER>
1

> <PUBCHEM_MMFF94_PARTIAL_CHARGES>
20
1 -0.08
10 0.04
11 0.3
12 0.41
13 0.41
14 0.47
15 0.47
16 0.15
17 0.15
18 0.4
19 0.4
2 -0.57
20 0.4
21 0.4
3 -0.57
4 -0.62
5 -0.62
6 -0.9
7 -0.9
9 0.26

> <PUBCHEM_EFFECTIVE_ROTOR_COUNT>
0

> <PUBCHEM_PHARMACOPHORE_FEATURES>
10
1 3 acceptor
1 6 cation
1 6 donor
1 7 donor
3 2 5 14 cation
3 3 4 15 cation
3 5 7 13 cation
5 1 8 9 10 11 rings
6 2 5 9 10 13 14 rings
6 3 4 8 11 12 15 rings

> <PUBCHEM_HEAVY_ATOM_COUNT>
15

> <PUBCHEM_ATOM_DEF_STEREO_COUNT>
0

> <PUBCHEM_ATOM_UDEF_STEREO_COUNT>
0

> <PUBCHEM_BOND_DEF_STEREO_COUNT>
0

> <PUBCHEM_BOND_UDEF_STEREO_COUNT>
0

> <PUBCHEM_ISOTOPIC_ATOM_COUNT>
0

> <PUBCHEM_COMPONENT_COUNT>
1

> <PUBCHEM_CACTVS_TAUTO_COUNT>
21

> <PUBCHEM_CONFORMER_ID>
01714F2000000001

> <PUBCHEM_MMFF94_ENERGY>
39.5072

> <PUBCHEM_FEATURE_SELFOVERLAP>
51.024

> <PUBCHEM_SHAPE_FINGERPRINT>
10608611 8 18410289198760580813
10967382 1 18194401095663523911
11132069 177 18338510842073812216
11471102 20 18338230471141138429
12032990 46 18337678610767232787
12251169 10 18340212882132212993
12932764 1 17458902630885462025
13140716 1 18339360747376971873
13380535 76 18338795619864893359
13897977 150 18410571773581053293
14144814 61 18410855443127699290
14325111 11 18410855447269666144
14790565 3 16099969335498364181
15196674 1 18410575076384439142
15375462 6 18337674229720885599
15442244 35 18194682570904160690
15536298 74 18343301470466200326
15775835 57 18337116674193711916
16945 1 18410575127823956326
17990270 104 18411139100053525090
18186145 218 18272377442472001728
193761 8 15600610787329285287
19591789 44 16244924545624693013
19973954 147 18410856542528661073
200 152 18130494293576947015
20510252 161 18272090512902779793
21267235 1 18410865355754398007
21501502 16 18409732845871313617
221490 88 18409175428105210730
2334 1 18410855464470634349
23402539 116 18341038705226832631
23463225 33 18336264527181407074
23552423 10 18334858311801802183
23559900 14 18126283031321214806
2748010 2 18410572859896425989
335352 9 18122343471603023359
5104073 3 18411136922299105834
528886 8 18338792312718671282
53812653 166 18341888559338271192
7364860 26 18342738559241623576
7832392 63 18268147543867408033
8809292 202 18261681393452299883
9709674 26 18411423933526232998

> <PUBCHEM_SHAPE_MULTIPOLES>
282.66
5.35
2.34
0.59
0.31
0.28
0
-0.27
0
0.05
0
0
-0.03
0

> <PUBCHEM_SHAPE_SELFOVERLAP>
626.199

> <PUBCHEM_SHAPE_VOLUME>
153

> <PUBCHEM_COORDINATE_TYPE>
2
5
10

$$$$
