9949093
  -OEChem-10062122043D

 34 37  0     0  0  0  0  0  0999 V2000
    1.3537   -4.6016   -0.1134 Cl  0  0  0  0  0  0  0  0  0  0  0  0
   -2.7837   -1.9786   -0.0450 O   0  0  0  0  0  0  0  0  0  0  0  0
    1.4107    1.2377    0.0447 N   0  0  0  0  0  0  0  0  0  0  0  0
   -1.2513   -0.1957    0.0039 N   0  0  0  0  0  0  0  0  0  0  0  0
    4.7827    2.7319    0.0921 N   0  0  0  0  0  0  0  0  0  0  0  0
   -5.9465    0.6144    0.5352 N   0  0  0  0  0  0  0  0  0  0  0  0
    1.1899   -0.1192    0.0079 C   0  0  0  0  0  0  0  0  0  0  0  0
    2.4391   -0.7411   -0.0073 C   0  0  0  0  0  0  0  0  0  0  0  0
    3.4301    0.2906    0.0224 C   0  0  0  0  0  0  0  0  0  0  0  0
    2.7568    1.5113    0.0541 C   0  0  0  0  0  0  0  0  0  0  0  0
   -0.0123   -0.8355   -0.0128 C   0  0  0  0  0  0  0  0  0  0  0  0
    2.4906   -2.1505   -0.0457 C   0  0  0  0  0  0  0  0  0  0  0  0
    0.0649   -2.2303   -0.0502 C   0  0  0  0  0  0  0  0  0  0  0  0
    4.8337    0.3016    0.0257 C   0  0  0  0  0  0  0  0  0  0  0  0
    1.2966   -2.8803   -0.0667 C   0  0  0  0  0  0  0  0  0  0  0  0
    3.4298    2.7257    0.0886 C   0  0  0  0  0  0  0  0  0  0  0  0
    5.4394    1.5503    0.0613 C   0  0  0  0  0  0  0  0  0  0  0  0
   -2.5252   -0.7803   -0.0126 C   0  0  0  0  0  0  0  0  0  0  0  0
   -3.6648    0.1741   -0.0163 C   0  0  0  0  0  0  0  0  0  0  0  0
   -3.5018    1.4299   -0.5470 C   0  0  0  0  0  0  0  0  0  0  0  0
   -4.8706   -0.2037    0.5082 C   0  0  0  0  0  0  0  0  0  0  0  0
   -4.5860    2.3005   -0.5374 C   0  0  0  0  0  0  0  0  0  0  0  0
   -5.7757    1.8485    0.0103 C   0  0  0  0  0  0  0  0  0  0  0  0
    0.6838    1.9395    0.0622 H   0  0  0  0  0  0  0  0  0  0  0  0
    3.4517   -2.6581   -0.0584 H   0  0  0  0  0  0  0  0  0  0  0  0
   -0.8108   -2.8657   -0.0682 H   0  0  0  0  0  0  0  0  0  0  0  0
    5.4204   -0.6096    0.0023 H   0  0  0  0  0  0  0  0  0  0  0  0
    2.9295    3.6849    0.1139 H   0  0  0  0  0  0  0  0  0  0  0  0
   -1.1934    0.8157    0.0726 H   0  0  0  0  0  0  0  0  0  0  0  0
    6.5222    1.6319    0.0660 H   0  0  0  0  0  0  0  0  0  0  0  0
   -2.5821    1.7719   -1.0092 H   0  0  0  0  0  0  0  0  0  0  0  0
   -5.0406   -1.1834    0.9417 H   0  0  0  0  0  0  0  0  0  0  0  0
   -4.5054    3.2982   -0.9533 H   0  0  0  0  0  0  0  0  0  0  0  0
   -6.6518    2.4880    0.0399 H   0  0  0  0  0  0  0  0  0  0  0  0
  1 15  1  0  0  0  0
  2 18  2  0  0  0  0
  3  7  1  0  0  0  0
  3 10  1  0  0  0  0
  3 24  1  0  0  0  0
  4 11  1  0  0  0  0
  4 18  1  0  0  0  0
  4 29  1  0  0  0  0
  5 16  2  0  0  0  0
  5 17  1  0  0  0  0
  6 21  1  0  0  0  0
  6 23  2  0  0  0  0
  7  8  2  0  0  0  0
  7 11  1  0  0  0  0
  8  9  1  0  0  0  0
  8 12  1  0  0  0  0
  9 10  2  0  0  0  0
  9 14  1  0  0  0  0
 10 16  1  0  0  0  0
 11 13  2  0  0  0  0
 12 15  2  0  0  0  0
 12 25  1  0  0  0  0
 13 15  1  0  0  0  0
 13 26  1  0  0  0  0
 14 17  2  0  0  0  0
 14 27  1  0  0  0  0
 16 28  1  0  0  0  0
 17 30  1  0  0  0  0
 18 19  1  0  0  0  0
 19 20  1  0  0  0  0
 19 21  2  0  0  0  0
 20 22  2  0  0  0  0
 20 31  1  0  0  0  0
 21 32  1  0  0  0  0
 22 23  1  0  0  0  0
 22 33  1  0  0  0  0
 23 34  1  0  0  0  0
M  END
> <PUBCHEM_COMPOUND_CID>
9949093

> <PUBCHEM_CONFORMER_RMSD>
0.6

> <PUBCHEM_CONFORMER_DIVERSEORDER>
2
8
9
12
5
3
7
1
10
4
6
11

> <PUBCHEM_MMFF94_PARTIAL_CHARGES>
32
1 -0.18
10 -0.15
11 0.12
12 -0.15
13 -0.15
14 -0.15
15 0.18
16 0.16
17 0.16
18 0.54
19 0.09
2 -0.57
20 -0.15
21 0.16
22 -0.15
23 0.16
24 0.27
25 0.15
26 0.15
27 0.15
28 0.15
29 0.37
3 0.03
30 0.15
31 0.15
32 0.15
33 0.15
34 0.15
4 -0.55
5 -0.62
6 -0.62
7 -0.15

> <PUBCHEM_EFFECTIVE_ROTOR_COUNT>
3

> <PUBCHEM_PHARMACOPHORE_FEATURES>
10
1 2 acceptor
1 3 cation
1 3 donor
1 4 donor
1 5 acceptor
1 6 acceptor
5 3 7 8 9 10 rings
6 5 9 10 14 16 17 rings
6 6 19 20 21 22 23 rings
6 7 8 11 12 13 15 rings

> <PUBCHEM_HEAVY_ATOM_COUNT>
23

> <PUBCHEM_ATOM_DEF_STEREO_COUNT>
0

> <PUBCHEM_ATOM_UDEF_STEREO_COUNT>
0

> <PUBCHEM_BOND_DEF_STEREO_COUNT>
0

> <PUBCHEM_BOND_UDEF_STEREO_COUNT>
0

> <PUBCHEM_ISOTOPIC_ATOM_COUNT>
0

> <PUBCHEM_COMPONENT_COUNT>
1

> <PUBCHEM_CACTVS_TAUTO_COUNT>
4

> <PUBCHEM_CONFORMER_ID>
0097CFA500000002

> <PUBCHEM_MMFF94_ENERGY>
64.5998

> <PUBCHEM_FEATURE_SELFOVERLAP>
50.933

> <PUBCHEM_SHAPE_FINGERPRINT>
10 15 18114465651316200521
10411042 1 17618504285842429118
10595046 47 18343015563695176589
10693767 8 17916309329818882622
11595378 159 16660914492137523261
12293681 160 17846504768012175376
12390115 104 18269008646282007984
12403259 415 18129381677782710312
12730499 353 18409457968154520731
12769317 202 18341886381368144769
12930653 34 18336833095105688443
13402501 40 18407758144764111309
13631057 29 18057597871337084279
13785724 45 17478616711332482167
138480 1 17978509728703513350
13878862 14 18118943825259509461
13955234 65 18265337213764600491
14466204 15 18410847759706039848
14790565 3 18337393867468181028
15196674 1 18410855494503756908
15475509 35 16516246197946338714
15664445 248 17841727205216971014
15927050 60 18411136983215767454
1601671 61 18335137592403957956
16992752 21 17328307940246499762
17844677 252 18196379122162967201
19784866 9 18412541003148503226
20157964 124 18339075991799653301
20645477 56 18261111859809567501
20739085 24 18187083923623050676
21033648 29 18270111461040861288
21065198 57 18265334998251974063
21279426 13 18342184362742476444
21307412 95 17986421995714923038
21421861 104 17896308122186821010
21756936 100 18198052784834158956
21859007 373 17025139728141597701
23559900 14 18194961842679147763
244849 19 17896908489795449371
245318 6 17606135110404613957
335352 9 18411419519222395470
3411729 13 18333730187471496954
350125 39 18335983082739134932
3545911 37 18410858759027230401
376196 1 18058723753773309482
38695281 34 18343019991000025958
474 4 18411983554842524675
5104073 3 18188496774848168305
5385378 56 18340210695629875667
59755656 215 18338521841875460588
633830 44 18343016722624456846
636775 72 17693653032864182960
77188 2 17690561888591364190
7808743 9 18049440641424766552
79837 15 18190180281031384442
8272917 22 18341051822141402470
9981440 41 18336826497750735171

> <PUBCHEM_SHAPE_MULTIPOLES>
449.41
12.69
4.07
0.65
11.54
3.59
-0.01
-11.17
0.71
-3.56
-0.24
0.21
-0.03
0.51

> <PUBCHEM_SHAPE_SELFOVERLAP>
1005.781

> <PUBCHEM_SHAPE_VOLUME>
239.1

> <PUBCHEM_COORDINATE_TYPE>
2
5
10

$$$$
