44466196
  -OEChem-10062122033D

 41 42  0     0  0  0  0  0  0999 V2000
   -4.4196   -2.2586   -0.0626 O   0  0  0  0  0  0  0  0  0  0  0  0
    4.1433   -0.1684   -0.3798 N   0  0  0  0  0  0  0  0  0  0  0  0
    0.4954    0.3590   -0.1333 N   0  0  0  0  0  0  0  0  0  0  0  0
    2.8930    0.5744   -0.2823 C   0  0  0  0  0  0  0  0  0  0  0  0
    1.7082   -0.3828   -0.2561 C   0  0  0  0  0  0  0  0  0  0  0  0
    4.5173   -0.7222    0.9230 C   0  0  0  0  0  0  0  0  0  0  0  0
    5.2140    0.6885   -0.8928 C   0  0  0  0  0  0  0  0  0  0  0  0
   -0.7795   -0.2579   -0.1097 C   0  0  0  0  0  0  0  0  0  0  0  0
   -1.9586    0.4953    0.0119 C   0  0  0  0  0  0  0  0  0  0  0  0
   -3.2068   -0.1713    0.0300 C   0  0  0  0  0  0  0  0  0  0  0  0
    5.7841   -1.5548    0.8224 C   0  0  0  0  0  0  0  0  0  0  0  0
    5.4918    1.8452    0.0522 C   0  0  0  0  0  0  0  0  0  0  0  0
   -0.8304   -1.6483   -0.2120 C   0  0  0  0  0  0  0  0  0  0  0  0
   -3.2392   -1.5716   -0.0740 C   0  0  0  0  0  0  0  0  0  0  0  0
   -1.9263    1.8955    0.1158 C   0  0  0  0  0  0  0  0  0  0  0  0
   -2.0578   -2.3039   -0.1941 C   0  0  0  0  0  0  0  0  0  0  0  0
   -4.3860    0.5817    0.1516 C   0  0  0  0  0  0  0  0  0  0  0  0
   -3.1077    2.6279    0.2360 C   0  0  0  0  0  0  0  0  0  0  0  0
   -4.3351    1.9722    0.2538 C   0  0  0  0  0  0  0  0  0  0  0  0
    2.7644    1.2278   -1.1566 H   0  0  0  0  0  0  0  0  0  0  0  0
    2.8605    1.2254    0.6016 H   0  0  0  0  0  0  0  0  0  0  0  0
    1.7915   -1.0732    0.5890 H   0  0  0  0  0  0  0  0  0  0  0  0
    1.7110   -0.9684   -1.1844 H   0  0  0  0  0  0  0  0  0  0  0  0
    4.6099    0.0263    1.7180 H   0  0  0  0  0  0  0  0  0  0  0  0
    3.7384   -1.4138    1.2623 H   0  0  0  0  0  0  0  0  0  0  0  0
    6.1309    0.1252   -1.0957 H   0  0  0  0  0  0  0  0  0  0  0  0
    4.9199    1.0880   -1.8722 H   0  0  0  0  0  0  0  0  0  0  0  0
    0.5553    1.3645   -0.0527 H   0  0  0  0  0  0  0  0  0  0  0  0
    5.7388   -2.2624   -0.0127 H   0  0  0  0  0  0  0  0  0  0  0  0
    6.6840   -0.9413    0.7183 H   0  0  0  0  0  0  0  0  0  0  0  0
    5.9101   -2.1424    1.7389 H   0  0  0  0  0  0  0  0  0  0  0  0
    4.6188    2.4749    0.2443 H   0  0  0  0  0  0  0  0  0  0  0  0
    5.9241    1.5324    1.0065 H   0  0  0  0  0  0  0  0  0  0  0  0
    6.2386    2.5007   -0.4125 H   0  0  0  0  0  0  0  0  0  0  0  0
    0.0555   -2.2683   -0.3071 H   0  0  0  0  0  0  0  0  0  0  0  0
   -1.0041    2.4673    0.1080 H   0  0  0  0  0  0  0  0  0  0  0  0
   -2.0804   -3.3876   -0.2750 H   0  0  0  0  0  0  0  0  0  0  0  0
   -5.3615    0.1008    0.1688 H   0  0  0  0  0  0  0  0  0  0  0  0
   -3.0697    3.7104    0.3157 H   0  0  0  0  0  0  0  0  0  0  0  0
   -5.2544    2.5431    0.3473 H   0  0  0  0  0  0  0  0  0  0  0  0
   -4.2384   -3.2106   -0.1445 H   0  0  0  0  0  0  0  0  0  0  0  0
  1 14  1  0  0  0  0
  1 41  1  0  0  0  0
  2  4  1  0  0  0  0
  2  6  1  0  0  0  0
  2  7  1  0  0  0  0
  3  5  1  0  0  0  0
  3  8  1  0  0  0  0
  3 28  1  0  0  0  0
  4  5  1  0  0  0  0
  4 20  1  0  0  0  0
  4 21  1  0  0  0  0
  5 22  1  0  0  0  0
  5 23  1  0  0  0  0
  6 11  1  0  0  0  0
  6 24  1  0  0  0  0
  6 25  1  0  0  0  0
  7 12  1  0  0  0  0
  7 26  1  0  0  0  0
  7 27  1  0  0  0  0
  8  9  1  0  0  0  0
  8 13  2  0  0  0  0
  9 10  1  0  0  0  0
  9 15  2  0  0  0  0
 10 14  1  0  0  0  0
 10 17  2  0  0  0  0
 11 29  1  0  0  0  0
 11 30  1  0  0  0  0
 11 31  1  0  0  0  0
 12 32  1  0  0  0  0
 12 33  1  0  0  0  0
 12 34  1  0  0  0  0
 13 16  1  0  0  0  0
 13 35  1  0  0  0  0
 14 16  2  0  0  0  0
 15 18  1  0  0  0  0
 15 36  1  0  0  0  0
 16 37  1  0  0  0  0
 17 19  1  0  0  0  0
 17 38  1  0  0  0  0
 18 19  2  0  0  0  0
 18 39  1  0  0  0  0
 19 40  1  0  0  0  0
M  END
> <PUBCHEM_COMPOUND_CID>
44466196

> <PUBCHEM_CONFORMER_RMSD>
0.8

> <PUBCHEM_CONFORMER_DIVERSEORDER>
1
10
11
7
18
15
17
4
24
12
27
9
19
14
8
16
20
22
2
5
3
26
23
25
13
6
21

> <PUBCHEM_MMFF94_PARTIAL_CHARGES>
23
1 -0.53
13 -0.15
14 0.08
15 -0.15
16 -0.15
17 -0.15
18 -0.15
19 -0.15
2 -0.81
28 0.4
3 -0.87
35 0.15
36 0.15
37 0.15
38 0.15
39 0.15
4 0.27
40 0.15
41 0.45
5 0.37
6 0.27
7 0.27
8 0.1

> <PUBCHEM_EFFECTIVE_ROTOR_COUNT>
6

> <PUBCHEM_PHARMACOPHORE_FEATURES>
6
1 1 donor
1 2 cation
1 3 cation
1 3 donor
6 8 9 10 13 14 16 rings
6 9 10 15 17 18 19 rings

> <PUBCHEM_HEAVY_ATOM_COUNT>
19

> <PUBCHEM_ATOM_DEF_STEREO_COUNT>
0

> <PUBCHEM_ATOM_UDEF_STEREO_COUNT>
0

> <PUBCHEM_BOND_DEF_STEREO_COUNT>
0

> <PUBCHEM_BOND_UDEF_STEREO_COUNT>
0

> <PUBCHEM_ISOTOPIC_ATOM_COUNT>
0

> <PUBCHEM_COMPONENT_COUNT>
1

> <PUBCHEM_CACTVS_TAUTO_COUNT>
2

> <PUBCHEM_CONFORMER_ID>
02A6801400000001

> <PUBCHEM_MMFF94_ENERGY>
59.4675

> <PUBCHEM_FEATURE_SELFOVERLAP>
30.472

> <PUBCHEM_SHAPE_FINGERPRINT>
10319926 262 18270666624687677154
10411042 1 18051977215145827567
10493431 412 18198919019978043993
10595046 47 18335702797415357828
10912923 1 18113899368926664384
11315181 36 18260546753603163548
11405975 8 18409164390518872882
12107183 9 17975409119140296778
12236239 1 17967814942208017033
12390115 104 17986128331014604441
12596602 18 17675929802116647393
12670546 56 18261387858534105670
13073987 5 18335700572490514306
13167823 11 18334573543044390890
14420673 8 18121499055949524410
14508225 48 18198048391420206189
15042514 8 18338520858655659707
15196674 1 18410293618745814270
15250474 111 18335128809312408466
17844677 252 18412270562306928432
1813 80 16805894974742835750
19489759 90 18131063805670690610
20645477 56 18340494382678403645
20645477 70 16486424187716923772
21033648 29 17274812567647387552
21065198 48 18334293184848575022
21236236 1 18342176678813952927
22224240 67 18270132215092865033
2297311 6 18200327618135368646
23175994 123 16845857905495412305
23402539 116 18413383233445312061
23557571 272 18130520702750672909
23559900 14 18057613062351339958
245318 6 16666286968498289516
300161 21 18334571361206051884
3004659 81 18409170979289011022
34797466 226 17775013422531402572
4073 2 18113625621013162858
4214541 1 18410575076526948444
5104073 3 18408603665152796088
559249 180 18336823087868578330
573450 72 18335977606275894538
77779 3 18410012143906188718
90127 26 18337686286353390512
9709674 26 18341341036712763566
9981440 41 18338239246144836179

> <PUBCHEM_SHAPE_MULTIPOLES>
375.18
13.29
2.61
0.76
17.62
0.1
0.03
1.6
1.21
-2.47
0.13
0.65
-0.04
-1.1

> <PUBCHEM_SHAPE_SELFOVERLAP>
785.316

> <PUBCHEM_SHAPE_VOLUME>
214.9

> <PUBCHEM_COORDINATE_TYPE>
2
5
10

$$$$
