24905142
  -OEChem-10052115143D

 41 45  0     0  0  0  0  0  0999 V2000
   -2.1911   -0.1820    0.0374 N   0  0  0  0  0  0  0  0  0  0  0  0
   -1.0154   -0.8261   -0.0825 N   0  0  0  0  0  0  0  0  0  0  0  0
   -3.0583    2.0727    0.2003 N   0  0  0  0  0  0  0  0  0  0  0  0
   -1.2728    3.7332    0.1287 N   0  0  0  0  0  0  0  0  0  0  0  0
    1.0304    3.1424   -0.0792 N   0  0  0  0  0  0  0  0  0  0  0  0
    3.1762   -0.5211   -1.7232 N   0  0  0  0  0  0  0  0  0  0  0  0
    5.2249   -1.0015   -0.5507 N   0  0  0  0  0  0  0  0  0  0  0  0
   -3.4745   -0.9792    0.1053 C   0  0  0  0  0  0  0  0  0  0  0  0
   -3.5554   -1.9620    1.2919 C   0  0  0  0  0  0  0  0  0  0  0  0
   -3.7081   -1.8296   -1.1561 C   0  0  0  0  0  0  0  0  0  0  0  0
   -3.6730   -3.3504    0.6730 C   0  0  0  0  0  0  0  0  0  0  0  0
   -4.3774   -3.0978   -0.6482 C   0  0  0  0  0  0  0  0  0  0  0  0
   -2.0671    1.1748    0.0844 C   0  0  0  0  0  0  0  0  0  0  0  0
   -0.7118    1.4379   -0.0117 C   0  0  0  0  0  0  0  0  0  0  0  0
   -0.1185    0.1658   -0.1118 C   0  0  0  0  0  0  0  0  0  0  0  0
    1.2776   -0.1390   -0.2347 C   0  0  0  0  0  0  0  0  0  0  0  0
   -0.3237    2.7733    0.0135 C   0  0  0  0  0  0  0  0  0  0  0  0
    2.0612   -0.3397    0.9003 C   0  0  0  0  0  0  0  0  0  0  0  0
   -2.5627    3.3290    0.2137 C   0  0  0  0  0  0  0  0  0  0  0  0
    1.8741   -0.2396   -1.4844 C   0  0  0  0  0  0  0  0  0  0  0  0
    3.4213   -0.6348    0.7140 C   0  0  0  0  0  0  0  0  0  0  0  0
    3.8879   -0.7056   -0.5953 C   0  0  0  0  0  0  0  0  0  0  0  0
    4.5302   -0.8996    1.5607 C   0  0  0  0  0  0  0  0  0  0  0  0
    5.6259   -1.1211    0.7546 C   0  0  0  0  0  0  0  0  0  0  0  0
   -4.2719   -0.2326    0.2041 H   0  0  0  0  0  0  0  0  0  0  0  0
   -4.4603   -1.7470    1.8735 H   0  0  0  0  0  0  0  0  0  0  0  0
   -2.7034   -1.8950    1.9758 H   0  0  0  0  0  0  0  0  0  0  0  0
   -2.7667   -2.0839   -1.6571 H   0  0  0  0  0  0  0  0  0  0  0  0
   -4.3338   -1.3056   -1.8859 H   0  0  0  0  0  0  0  0  0  0  0  0
   -4.2231   -4.0449    1.3142 H   0  0  0  0  0  0  0  0  0  0  0  0
   -2.6744   -3.7669    0.4952 H   0  0  0  0  0  0  0  0  0  0  0  0
   -4.2680   -3.9329   -1.3458 H   0  0  0  0  0  0  0  0  0  0  0  0
   -5.4472   -2.9235   -0.4834 H   0  0  0  0  0  0  0  0  0  0  0  0
    1.6422   -0.2713    1.9001 H   0  0  0  0  0  0  0  0  0  0  0  0
    1.2900   -0.0880   -2.3899 H   0  0  0  0  0  0  0  0  0  0  0  0
   -3.2964    4.1227    0.3049 H   0  0  0  0  0  0  0  0  0  0  0  0
    1.7597    2.4500   -0.1652 H   0  0  0  0  0  0  0  0  0  0  0  0
    1.2691    4.1248   -0.0570 H   0  0  0  0  0  0  0  0  0  0  0  0
    4.5321   -0.9263    2.6417 H   0  0  0  0  0  0  0  0  0  0  0  0
    5.8232   -1.1138   -1.3573 H   0  0  0  0  0  0  0  0  0  0  0  0
    6.6541   -1.3533    0.9941 H   0  0  0  0  0  0  0  0  0  0  0  0
  1  2  1  0  0  0  0
  1  8  1  0  0  0  0
  1 13  1  0  0  0  0
  2 15  2  0  0  0  0
  3 13  2  0  0  0  0
  3 19  1  0  0  0  0
  4 17  1  0  0  0  0
  4 19  2  0  0  0  0
  5 17  1  0  0  0  0
  5 37  1  0  0  0  0
  5 38  1  0  0  0  0
  6 20  1  0  0  0  0
  6 22  2  0  0  0  0
  7 22  1  0  0  0  0
  7 24  1  0  0  0  0
  7 40  1  0  0  0  0
  8  9  1  0  0  0  0
  8 10  1  0  0  0  0
  8 25  1  0  0  0  0
  9 11  1  0  0  0  0
  9 26  1  0  0  0  0
  9 27  1  0  0  0  0
 10 12  1  0  0  0  0
 10 28  1  0  0  0  0
 10 29  1  0  0  0  0
 11 12  1  0  0  0  0
 11 30  1  0  0  0  0
 11 31  1  0  0  0  0
 12 32  1  0  0  0  0
 12 33  1  0  0  0  0
 13 14  1  0  0  0  0
 14 15  1  0  0  0  0
 14 17  2  0  0  0  0
 15 16  1  0  0  0  0
 16 18  1  0  0  0  0
 16 20  2  0  0  0  0
 18 21  2  0  0  0  0
 18 34  1  0  0  0  0
 19 36  1  0  0  0  0
 20 35  1  0  0  0  0
 21 22  1  0  0  0  0
 21 23  1  0  0  0  0
 23 24  2  0  0  0  0
 23 39  1  0  0  0  0
 24 41  1  0  0  0  0
M  END
> <PUBCHEM_COMPOUND_CID>
24905142

> <PUBCHEM_CONFORMER_RMSD>
0.6

> <PUBCHEM_CONFORMER_DIVERSEORDER>
1
4
12
15
8
9
16
7
3
11
6
10
14
5
13
2

> <PUBCHEM_MMFF94_PARTIAL_CHARGES>
26
1 0.31
13 0.11
15 0.23
16 0.05
17 0.41
18 -0.15
19 0.47
2 -0.71
20 0.16
22 0.11
23 -0.15
24 -0.3
3 -0.57
34 0.15
35 0.15
36 0.15
37 0.4
38 0.4
39 0.15
4 -0.62
40 0.27
41 0.15
5 -0.9
6 -0.57
7 0.03
8 0.26

> <PUBCHEM_EFFECTIVE_ROTOR_COUNT>
3

> <PUBCHEM_PHARMACOPHORE_FEATURES>
12
1 2 acceptor
1 5 cation
1 5 donor
1 7 donor
3 1 3 13 cation
3 3 4 19 cation
3 6 7 22 cation
5 1 2 13 14 15 rings
5 7 21 22 23 24 rings
5 8 9 10 11 12 rings
6 3 4 13 14 17 19 rings
6 6 16 18 20 21 22 rings

> <PUBCHEM_HEAVY_ATOM_COUNT>
24

> <PUBCHEM_ATOM_DEF_STEREO_COUNT>
0

> <PUBCHEM_ATOM_UDEF_STEREO_COUNT>
0

> <PUBCHEM_BOND_DEF_STEREO_COUNT>
0

> <PUBCHEM_BOND_UDEF_STEREO_COUNT>
0

> <PUBCHEM_ISOTOPIC_ATOM_COUNT>
0

> <PUBCHEM_COMPONENT_COUNT>
1

> <PUBCHEM_CACTVS_TAUTO_COUNT>
14

> <PUBCHEM_CONFORMER_ID>
017C05B600000001

> <PUBCHEM_MMFF94_ENERGY>
52.932

> <PUBCHEM_FEATURE_SELFOVERLAP>
61.29

> <PUBCHEM_SHAPE_FINGERPRINT>
10319926 262 18198041609788594066
10411042 1 18339078315071258475
1100329 8 18410013222059719857
11056379 131 18339086990762596414
11265709 11 18410011074396223459
11370993 144 16916520141899949139
11545043 162 18202000976708465850
11578080 2 17677310818912928380
12035758 1 18270698476233774369
12236239 1 17604720945620226660
12363563 72 18338520858212346615
12553582 1 18338249261781833523
12788726 201 18262532484414488942
13052359 8 18263924341760348565
13140716 1 18412831308847474041
13583140 156 17916853618128345554
13782708 43 17846504695557472102
14178342 30 18264772069272469854
14787075 74 18042968868796662800
14844126 61 18408601431553900979
15042514 8 18338522945729547633
15099037 37 18343299253920359814
15131766 46 15794589583850148261
15250474 111 18116138971065833074
15842332 3 17822875094900001780
16992727 255 18044354064833409277
17349148 13 17822013112117702898
17539 30 18412254022398479869
1813 80 18200040671486737591
18222031 100 18271805795157506991
18927931 339 18413392016427111734
200 152 17676205779714670642
20101258 96 18410020948093656977
20832881 197 18188491410608718707
21033648 29 17417230054009196554
21065201 7 18270401569170621318
21304303 282 17830426433375231957
21452121 199 18266177416820669973
21728266 224 18334565816155664866
23366157 5 17900549174653216069
23402539 116 18411131433442047310
23419403 2 18045751706350424100
23557571 272 18201442415704900644
23559900 14 18336534027609987617
314173 85 18342462568711504451
3178227 256 18263939752778675553
463206 1 18116710905653247491
5104073 3 18342731897984465416
58779409 54 18410004404338497197
6669772 16 17402621143490816844
6673363 416 18268164214002515700
7471813 234 18335419127277764652
7970288 3 18338515369113053091
9709674 26 18127693721238759566
9981440 41 17687187487384614657

> <PUBCHEM_SHAPE_MULTIPOLES>
459.04
10.14
4.04
1.19
8.51
3.16
-0.12
-9.61
0.99
-5.9
0.41
0.71
-0.61
-0.39

> <PUBCHEM_SHAPE_SELFOVERLAP>
1036.741

> <PUBCHEM_SHAPE_VOLUME>
238.1

> <PUBCHEM_COORDINATE_TYPE>
2
5
10

$$$$
