18451197
  -OEChem-10052115183D

 49 53  0     0  0  0  0  0  0999 V2000
   -4.4763    1.9534    0.1393 S   0  0  0  0  0  0  0  0  0  0  0  0
    7.9494   -0.3352    2.0024 F   0  0  0  0  0  0  0  0  0  0  0  0
   -9.1026    0.2668    0.1497 O   0  0  0  0  0  0  0  0  0  0  0  0
    4.1338    0.3310   -1.2476 O   0  0  0  0  0  0  0  0  0  0  0  0
   -4.1287   -2.4981   -0.2147 N   0  0  0  0  0  0  0  0  0  0  0  0
   -1.7939   -2.2965    0.0946 N   0  0  0  0  0  0  0  0  0  0  0  0
    3.3295    0.1800    0.9478 N   0  0  0  0  0  0  0  0  0  0  0  0
    5.5991    0.0208    0.5484 N   0  0  0  0  0  0  0  0  0  0  0  0
   -3.2100   -0.3000    0.0956 C   0  0  0  0  0  0  0  0  0  0  0  0
   -2.2341    0.7302    0.3088 C   0  0  0  0  0  0  0  0  0  0  0  0
   -4.4956    0.2369   -0.0162 C   0  0  0  0  0  0  0  0  0  0  0  0
   -5.6102   -0.5832   -0.2280 C   0  0  0  0  0  0  0  0  0  0  0  0
   -0.8082    0.5888    0.4736 C   0  0  0  0  0  0  0  0  0  0  0  0
   -3.0628   -1.6921   -0.0101 C   0  0  0  0  0  0  0  0  0  0  0  0
   -2.7854    1.9888    0.3525 C   0  0  0  0  0  0  0  0  0  0  0  0
   -6.9336   -0.0516   -0.3462 C   0  0  0  0  0  0  0  0  0  0  0  0
   -5.3505   -1.9395   -0.3167 C   0  0  0  0  0  0  0  0  0  0  0  0
    0.0288    0.6277   -0.6417 C   0  0  0  0  0  0  0  0  0  0  0  0
   -0.2659    0.4139    1.7467 C   0  0  0  0  0  0  0  0  0  0  0  0
    1.9502    0.3171    0.7896 C   0  0  0  0  0  0  0  0  0  0  0  0
    1.4079    0.4919   -0.4836 C   0  0  0  0  0  0  0  0  0  0  0  0
    1.1131    0.2780    1.9048 C   0  0  0  0  0  0  0  0  0  0  0  0
   -7.4726    0.8698   -1.2756 C   0  0  0  0  0  0  0  0  0  0  0  0
   -7.9647   -0.3883    0.4998 C   0  0  0  0  0  0  0  0  0  0  0  0
   -8.7947    1.0302   -0.9315 C   0  0  0  0  0  0  0  0  0  0  0  0
    4.3386    0.1917   -0.0460 C   0  0  0  0  0  0  0  0  0  0  0  0
    6.8625   -0.0259   -0.0869 C   0  0  0  0  0  0  0  0  0  0  0  0
    8.0203   -0.2056    0.6699 C   0  0  0  0  0  0  0  0  0  0  0  0
    6.9487    0.1075   -1.4727 C   0  0  0  0  0  0  0  0  0  0  0  0
    9.2645   -0.2517    0.0409 C   0  0  0  0  0  0  0  0  0  0  0  0
    8.1929    0.0614   -2.1016 C   0  0  0  0  0  0  0  0  0  0  0  0
    9.3508   -0.1182   -1.3450 C   0  0  0  0  0  0  0  0  0  0  0  0
   -2.2834    2.9359    0.4992 H   0  0  0  0  0  0  0  0  0  0  0  0
   -6.1506   -2.6561   -0.4841 H   0  0  0  0  0  0  0  0  0  0  0  0
   -0.3793    0.7621   -1.6409 H   0  0  0  0  0  0  0  0  0  0  0  0
   -0.9046    0.3800    2.6263 H   0  0  0  0  0  0  0  0  0  0  0  0
    1.9868    0.5323   -1.3951 H   0  0  0  0  0  0  0  0  0  0  0  0
    1.5220    0.1416    2.9028 H   0  0  0  0  0  0  0  0  0  0  0  0
   -6.9695    1.3561   -2.0995 H   0  0  0  0  0  0  0  0  0  0  0  0
   -8.0530   -1.0425    1.3559 H   0  0  0  0  0  0  0  0  0  0  0  0
   -1.7431   -3.3036    0.0108 H   0  0  0  0  0  0  0  0  0  0  0  0
   -0.9454   -1.7787    0.2456 H   0  0  0  0  0  0  0  0  0  0  0  0
    3.6494    0.0555    1.9051 H   0  0  0  0  0  0  0  0  0  0  0  0
   -9.6061    1.6182   -1.3348 H   0  0  0  0  0  0  0  0  0  0  0  0
    5.6189   -0.0837    1.5598 H   0  0  0  0  0  0  0  0  0  0  0  0
    6.1019    0.2496   -2.1284 H   0  0  0  0  0  0  0  0  0  0  0  0
   10.1658   -0.3916    0.6303 H   0  0  0  0  0  0  0  0  0  0  0  0
    8.2616    0.1653   -3.1807 H   0  0  0  0  0  0  0  0  0  0  0  0
   10.3195   -0.1541   -1.8347 H   0  0  0  0  0  0  0  0  0  0  0  0
  1 11  1  0  0  0  0
  1 15  1  0  0  0  0
  2 28  1  0  0  0  0
  3 24  1  0  0  0  0
  3 25  1  0  0  0  0
  4 26  2  0  0  0  0
  5 14  2  0  0  0  0
  5 17  1  0  0  0  0
  6 14  1  0  0  0  0
  6 41  1  0  0  0  0
  6 42  1  0  0  0  0
  7 20  1  0  0  0  0
  7 26  1  0  0  0  0
  7 43  1  0  0  0  0
  8 26  1  0  0  0  0
  8 27  1  0  0  0  0
  8 45  1  0  0  0  0
  9 10  1  0  0  0  0
  9 11  2  0  0  0  0
  9 14  1  0  0  0  0
 10 13  1  0  0  0  0
 10 15  2  0  0  0  0
 11 12  1  0  0  0  0
 12 16  1  0  0  0  0
 12 17  2  0  0  0  0
 13 18  2  0  0  0  0
 13 19  1  0  0  0  0
 15 33  1  0  0  0  0
 16 23  1  0  0  0  0
 16 24  2  0  0  0  0
 17 34  1  0  0  0  0
 18 21  1  0  0  0  0
 18 35  1  0  0  0  0
 19 22  2  0  0  0  0
 19 36  1  0  0  0  0
 20 21  2  0  0  0  0
 20 22  1  0  0  0  0
 21 37  1  0  0  0  0
 22 38  1  0  0  0  0
 23 25  2  0  0  0  0
 23 39  1  0  0  0  0
 24 40  1  0  0  0  0
 25 44  1  0  0  0  0
 27 28  1  0  0  0  0
 27 29  2  0  0  0  0
 28 30  2  0  0  0  0
 29 31  1  0  0  0  0
 29 46  1  0  0  0  0
 30 32  1  0  0  0  0
 30 47  1  0  0  0  0
 31 32  2  0  0  0  0
 31 48  1  0  0  0  0
 32 49  1  0  0  0  0
M  END
> <PUBCHEM_COMPOUND_CID>
18451197

> <PUBCHEM_CONFORMER_RMSD>
0.8

> <PUBCHEM_CONFORMER_DIVERSEORDER>
1
41
17
18
33
34
40
12
24
38
22
29
32
3
21
23
8
27
36
16
9
31
15
30
13
7
37
35
10
5
11
19
26
14
39
25
20
2
6
28
4

> <PUBCHEM_MMFF94_PARTIAL_CHARGES>
48
1 -0.08
10 -0.05
11 0.04
12 0.05
13 0.05
14 0.41
15 -0.11
16 -0.05
17 0.16
18 -0.15
19 -0.15
2 -0.19
20 0.12
21 -0.15
22 -0.15
23 -0.15
24 -0.01
25 -0.01
26 0.69
27 0.12
28 0.19
29 -0.15
3 -0.28
30 -0.15
31 -0.15
32 -0.15
33 0.15
34 0.15
35 0.15
36 0.15
37 0.15
38 0.15
39 0.15
4 -0.57
40 0.15
41 0.4
42 0.4
43 0.37
44 0.15
45 0.37
46 0.15
47 0.15
48 0.15
49 0.15
5 -0.62
6 -0.9
7 -0.55
8 -0.55

> <PUBCHEM_EFFECTIVE_ROTOR_COUNT>
6

> <PUBCHEM_PHARMACOPHORE_FEATURES>
11
1 3 acceptor
1 4 acceptor
1 6 donor
1 7 donor
1 8 donor
3 5 6 14 cation
5 1 9 10 11 15 rings
5 3 16 23 24 25 rings
6 13 18 19 20 21 22 rings
6 27 28 29 30 31 32 rings
6 5 9 11 12 14 17 rings

> <PUBCHEM_HEAVY_ATOM_COUNT>
32

> <PUBCHEM_ATOM_DEF_STEREO_COUNT>
0

> <PUBCHEM_ATOM_UDEF_STEREO_COUNT>
0

> <PUBCHEM_BOND_DEF_STEREO_COUNT>
0

> <PUBCHEM_BOND_UDEF_STEREO_COUNT>
0

> <PUBCHEM_ISOTOPIC_ATOM_COUNT>
0

> <PUBCHEM_COMPONENT_COUNT>
1

> <PUBCHEM_CACTVS_TAUTO_COUNT>
6

> <PUBCHEM_CONFORMER_ID>
01198AFD00000001

> <PUBCHEM_MMFF94_ENERGY>
97.2167

> <PUBCHEM_FEATURE_SELFOVERLAP>
55.936

> <PUBCHEM_SHAPE_FINGERPRINT>
10076449 9 18202283598330558065
10299344 5 17967531277056578226
10369192 42 14562522977887944179
106641 1 12175619577469390492
10674148 151 18409444808253212050
11315181 36 18333455352308432489
12089408 11 17676486150678720088
12236239 1 17676481753560688913
12643181 29 18059855091088059271
12741549 16 16128657444892639393
12758862 11 18130503123507514171
13885169 127 17203333282181516481
14040221 8 18342183245397942664
14118638 360 18339644430140945930
14251764 46 18410855455833207501
14294032 229 18189333477317357997
150020 25 18060419123462559024
15183329 4 18113902667720088450
15247644 1 17418373606364060343
15419008 47 17632290164721399184
15419008 91 17988345015513502576
15510794 2 17418092147939158534
16087824 20 18336542717463691613
16728433 281 18044930170071983901
18603816 31 15051721015738806877
19841028 212 17846224294043166422
20105231 36 18334862740609833067
20609170 92 18264203618003578085
21150785 3 17748827414479753680
21360443 120 17967812726137528355
21792934 111 16272204189714666840
21792961 116 17704075062199383176
22224240 67 14189575243378889348
232437 2 17240203235654939251
23559900 14 18128809919305233921
249057 3 18410293635614746076
3092352 35 17095240332398476779
335352 9 18410568497269865559
4017518 198 17917991681673163639
4325135 7 18186519899690213956
4625314 4 18201154450890369172
504579 68 18113622291880543908
5283156 175 18186799167391370594
54039377 194 18114470058696373211
58902169 19 17749112231590017262
59521270 166 18336263453793206309
6126387 218 15339124524643760555
636775 8 18187650250196479979
6691757 9 18411147931060096275
67123 10 16008751312062845025
9663363 56 16988841675200915224
9962374 69 15482377717226242032

> <PUBCHEM_SHAPE_MULTIPOLES>
623.46
32.54
1.54
1.42
36.23
0.58
-0.03
1.5
9.78
-3.34
-0.03
2.54
-0.16
0.52

> <PUBCHEM_SHAPE_SELFOVERLAP>
1389.056

> <PUBCHEM_SHAPE_VOLUME>
336.5

> <PUBCHEM_COORDINATE_TYPE>
2
5
10

$$$$
