2876406
  -OEChem-10052120443D

 43 46  0     0  0  0  0  0  0999 V2000
   -4.0209    2.6943   -0.3426 O   0  0  0  0  0  0  0  0  0  0  0  0
    4.4032    0.3346    1.7841 O   0  0  0  0  0  0  0  0  0  0  0  0
    5.5619    0.4012   -0.7408 O   0  0  0  0  0  0  0  0  0  0  0  0
   -1.3508   -2.7580    0.1441 N   0  0  0  0  0  0  0  0  0  0  0  0
   -0.0656   -2.3514    0.0256 N   0  0  0  0  0  0  0  0  0  0  0  0
   -2.2075   -0.5068   -0.0890 C   0  0  0  0  0  0  0  0  0  0  0  0
   -0.8932   -0.0459   -0.2003 C   0  0  0  0  0  0  0  0  0  0  0  0
   -3.2883    0.4033   -0.1371 C   0  0  0  0  0  0  0  0  0  0  0  0
   -2.4367   -1.8755    0.0788 C   0  0  0  0  0  0  0  0  0  0  0  0
    0.1750   -1.0834   -0.1478 C   0  0  0  0  0  0  0  0  0  0  0  0
   -3.0167    1.7712   -0.2881 C   0  0  0  0  0  0  0  0  0  0  0  0
   -0.6369    1.3214   -0.3336 C   0  0  0  0  0  0  0  0  0  0  0  0
    1.5906   -0.6935   -0.3001 C   0  0  0  0  0  0  0  0  0  0  0  0
   -4.5969   -0.0900   -0.0277 C   0  0  0  0  0  0  0  0  0  0  0  0
   -3.7505   -2.3448    0.1879 C   0  0  0  0  0  0  0  0  0  0  0  0
   -1.6998    2.2240   -0.3807 C   0  0  0  0  0  0  0  0  0  0  0  0
   -4.8245   -1.4568    0.1325 C   0  0  0  0  0  0  0  0  0  0  0  0
    2.3382   -0.3608    0.8241 C   0  0  0  0  0  0  0  0  0  0  0  0
    2.1634   -0.6620   -1.5667 C   0  0  0  0  0  0  0  0  0  0  0  0
    3.6755    0.0082    0.6800 C   0  0  0  0  0  0  0  0  0  0  0  0
    3.5008   -0.2928   -1.7108 C   0  0  0  0  0  0  0  0  0  0  0  0
    4.2568    0.0423   -0.5875 C   0  0  0  0  0  0  0  0  0  0  0  0
   -4.4452    3.2601    0.8946 C   0  0  0  0  0  0  0  0  0  0  0  0
    3.7344    0.2743    3.0425 C   0  0  0  0  0  0  0  0  0  0  0  0
    5.8338    1.7870   -0.9413 C   0  0  0  0  0  0  0  0  0  0  0  0
    0.3739    1.7095   -0.4108 H   0  0  0  0  0  0  0  0  0  0  0  0
   -5.4573    0.5734   -0.0674 H   0  0  0  0  0  0  0  0  0  0  0  0
   -3.9462   -3.4064    0.3181 H   0  0  0  0  0  0  0  0  0  0  0  0
   -1.5348   -3.7465    0.2682 H   0  0  0  0  0  0  0  0  0  0  0  0
   -1.4925    3.2853   -0.4927 H   0  0  0  0  0  0  0  0  0  0  0  0
   -5.8409   -1.8306    0.2168 H   0  0  0  0  0  0  0  0  0  0  0  0
    1.8296   -0.4062    1.7815 H   0  0  0  0  0  0  0  0  0  0  0  0
    1.5824   -0.9212   -2.4477 H   0  0  0  0  0  0  0  0  0  0  0  0
    3.9473   -0.2690   -2.7013 H   0  0  0  0  0  0  0  0  0  0  0  0
   -3.6390    3.8536    1.3374 H   0  0  0  0  0  0  0  0  0  0  0  0
   -4.7640    2.4823    1.5955 H   0  0  0  0  0  0  0  0  0  0  0  0
   -5.2944    3.9196    0.6960 H   0  0  0  0  0  0  0  0  0  0  0  0
    3.4129   -0.7454    3.2804 H   0  0  0  0  0  0  0  0  0  0  0  0
    2.9116    0.9953    3.0973 H   0  0  0  0  0  0  0  0  0  0  0  0
    4.4618    0.5644    3.8079 H   0  0  0  0  0  0  0  0  0  0  0  0
    5.3566    2.1421   -1.8602 H   0  0  0  0  0  0  0  0  0  0  0  0
    6.9156    1.9134   -1.0376 H   0  0  0  0  0  0  0  0  0  0  0  0
    5.4872    2.3756   -0.0860 H   0  0  0  0  0  0  0  0  0  0  0  0
  1 11  1  0  0  0  0
  1 23  1  0  0  0  0
  2 20  1  0  0  0  0
  2 24  1  0  0  0  0
  3 22  1  0  0  0  0
  3 25  1  0  0  0  0
  4  5  1  0  0  0  0
  4  9  1  0  0  0  0
  4 29  1  0  0  0  0
  5 10  2  0  0  0  0
  6  7  2  0  0  0  0
  6  8  1  0  0  0  0
  6  9  1  0  0  0  0
  7 10  1  0  0  0  0
  7 12  1  0  0  0  0
  8 11  2  0  0  0  0
  8 14  1  0  0  0  0
  9 15  2  0  0  0  0
 10 13  1  0  0  0  0
 11 16  1  0  0  0  0
 12 16  2  0  0  0  0
 12 26  1  0  0  0  0
 13 18  2  0  0  0  0
 13 19  1  0  0  0  0
 14 17  2  0  0  0  0
 14 27  1  0  0  0  0
 15 17  1  0  0  0  0
 15 28  1  0  0  0  0
 16 30  1  0  0  0  0
 17 31  1  0  0  0  0
 18 20  1  0  0  0  0
 18 32  1  0  0  0  0
 19 21  2  0  0  0  0
 19 33  1  0  0  0  0
 20 22  2  0  0  0  0
 21 22  1  0  0  0  0
 21 34  1  0  0  0  0
 23 35  1  0  0  0  0
 23 36  1  0  0  0  0
 23 37  1  0  0  0  0
 24 38  1  0  0  0  0
 24 39  1  0  0  0  0
 24 40  1  0  0  0  0
 25 41  1  0  0  0  0
 25 42  1  0  0  0  0
 25 43  1  0  0  0  0
M  END
> <PUBCHEM_COMPOUND_CID>
2876406

> <PUBCHEM_CONFORMER_RMSD>
0.8

> <PUBCHEM_CONFORMER_DIVERSEORDER>
1
4
2
3

> <PUBCHEM_MMFF94_PARTIAL_CHARGES>
32
1 -0.36
10 0.28
11 0.08
12 -0.15
13 0.09
14 -0.15
15 -0.15
16 -0.15
17 -0.15
18 -0.15
19 -0.15
2 -0.36
20 0.08
21 -0.15
22 0.08
23 0.28
24 0.28
25 0.28
26 0.15
27 0.15
28 0.15
29 0.4
3 -0.36
30 0.15
31 0.15
32 0.15
33 0.15
34 0.15
4 -0.46
5 -0.49
7 0.09
9 0.1

> <PUBCHEM_EFFECTIVE_ROTOR_COUNT>
4.2

> <PUBCHEM_PHARMACOPHORE_FEATURES>
9
1 1 acceptor
1 2 acceptor
1 3 acceptor
1 4 donor
1 5 acceptor
6 13 18 19 20 21 22 rings
6 4 5 6 7 9 10 rings
6 6 7 8 11 12 16 rings
6 6 8 9 14 15 17 rings

> <PUBCHEM_HEAVY_ATOM_COUNT>
25

> <PUBCHEM_ATOM_DEF_STEREO_COUNT>
0

> <PUBCHEM_ATOM_UDEF_STEREO_COUNT>
0

> <PUBCHEM_BOND_DEF_STEREO_COUNT>
0

> <PUBCHEM_BOND_UDEF_STEREO_COUNT>
0

> <PUBCHEM_ISOTOPIC_ATOM_COUNT>
0

> <PUBCHEM_COMPONENT_COUNT>
1

> <PUBCHEM_CACTVS_TAUTO_COUNT>
1

> <PUBCHEM_CONFORMER_ID>
002BE3F600000001

> <PUBCHEM_MMFF94_ENERGY>
125.9602

> <PUBCHEM_FEATURE_SELFOVERLAP>
45.757

> <PUBCHEM_SHAPE_FINGERPRINT>
10319926 262 18268975541238833922
10411042 1 17905614650830242007
10493431 412 18267033752349397417
10498660 4 18337958882905174516
10670039 82 18334303041550587182
11595378 159 17968365819230032320
12107183 9 17900532377188803738
12236239 1 17531243989365920638
12390115 104 18271538489773615529
12403259 415 17917709119541445504
12403814 3 17240483585661442029
12596602 18 17386002922757656746
12788726 201 18187928447073972435
13140716 1 18120661481613042283
13726171 33 18339935891292127840
13782708 43 17918280852798569894
13965767 371 17680985184888094141
14081887 123 18340761568435895305
14178342 30 18335979762470620897
14341114 328 18040433269817023760
14739800 52 18191292987763953856
14790565 3 17764320440134420617
15961568 22 18194114355601169308
16087824 20 18411140231006588879
16752209 62 18407762547010234975
16988056 13 15377657639315230365
17349148 13 17748823024997115195
17980427 23 17968105222010318085
19377110 9 17749114400010483169
20510252 161 18413394219982301859
20511986 3 17531514468994141260
20715895 44 17245527998860166453
21033648 144 15841256151884249352
21033648 29 17846770811044790392
21065198 48 17967809445003351658
21065201 7 18411141316209333070
21236236 1 18411423899487689477
21792961 116 17774738511076545052
23402539 116 18338516442716954566
23557571 272 18343872116621325132
23559900 14 18269841909009148918
283562 15 18410296917719008827
335352 9 18336827611281622015
341906 21 18410283710082228304
350125 39 18410017654518606165
3633792 109 16950823869546817834
469060 322 18263102010320978723
5104073 3 18335423404859677778
5265222 85 18269567182101573094
6823239 73 18200312242669959480
7064713 232 18335979753522399493
7808743 9 18409452449222077324
9849439 229 18049435938451843289
9981440 41 18187654595590560499

> <PUBCHEM_SHAPE_MULTIPOLES>
486.92
11.86
2.84
1.49
7.8
0.99
1.05
4.26
0.34
-4.72
0.12
2.89
0.22
-0.16

> <PUBCHEM_SHAPE_SELFOVERLAP>
1086.343

> <PUBCHEM_SHAPE_VOLUME>
259.8

> <PUBCHEM_COORDINATE_TYPE>
2
5
10

$$$$
