49830966
  -OEChem-10062121543D

 51 54  0     1  0  0  0  0  0999 V2000
   -0.6771   -3.5511   -1.1556 F   0  0  0  0  0  0  0  0  0  0  0  0
   -2.1979   -2.8748   -2.5545 F   0  0  0  0  0  0  0  0  0  0  0  0
   -0.6919   -1.4873   -1.8402 F   0  0  0  0  0  0  0  0  0  0  0  0
   -2.1596    1.5996    0.5342 O   0  0  0  0  0  0  0  0  0  0  0  0
   -5.6286    2.7411    0.8211 N   0  0  0  0  0  0  0  0  0  0  0  0
    5.9642   -1.4866    0.7508 N   0  0  0  0  0  0  0  0  0  0  0  0
    3.5621    2.1874    0.3590 N   0  0  0  0  0  0  0  0  0  0  0  0
    6.2649   -0.1944    0.9888 N   0  0  0  0  0  0  0  0  0  0  0  0
    0.0780    3.2540   -1.8194 N   0  0  0  0  0  0  0  0  0  0  0  0
   -4.5499    1.7572    0.9544 C   0  0  1  0  0  0  0  0  0  0  0  0
   -5.1032    0.3755    0.5468 C   0  0  0  0  0  0  0  0  0  0  0  0
   -3.3701    2.2149    0.0881 C   0  0  0  0  0  0  0  0  0  0  0  0
   -4.1170   -0.7602    0.6746 C   0  0  0  0  0  0  0  0  0  0  0  0
   -3.2964   -1.0960   -0.4022 C   0  0  0  0  0  0  0  0  0  0  0  0
   -4.0263   -1.4738    1.8699 C   0  0  0  0  0  0  0  0  0  0  0  0
   -2.3851   -2.1454   -0.2839 C   0  0  0  0  0  0  0  0  0  0  0  0
    4.1297   -0.4599    0.2598 C   0  0  0  0  0  0  0  0  0  0  0  0
   -1.0149    1.9476   -0.1036 C   0  0  0  0  0  0  0  0  0  0  0  0
    2.6527    1.2185   -0.0437 C   0  0  0  0  0  0  0  0  0  0  0  0
    1.3650    1.7740   -0.4055 C   0  0  0  0  0  0  0  0  0  0  0  0
    4.6907   -1.7045    0.3096 C   0  0  0  0  0  0  0  0  0  0  0  0
   -3.1151   -2.5233    1.9880 C   0  0  0  0  0  0  0  0  0  0  0  0
    5.1378    0.4736    0.6910 C   0  0  0  0  0  0  0  0  0  0  0  0
    2.8356   -0.1672   -0.1331 C   0  0  0  0  0  0  0  0  0  0  0  0
   -2.2943   -2.8591    0.9112 C   0  0  0  0  0  0  0  0  0  0  0  0
    0.2073    1.3971    0.2661 C   0  0  0  0  0  0  0  0  0  0  0  0
   -1.5078   -2.5051   -1.4354 C   0  0  0  0  0  0  0  0  0  0  0  0
    4.8334    1.8413    0.7385 C   0  0  0  0  0  0  0  0  0  0  0  0
   -1.0257    2.8634   -1.1434 C   0  0  0  0  0  0  0  0  0  0  0  0
    1.2477    2.6978   -1.4318 C   0  0  0  0  0  0  0  0  0  0  0  0
    4.1920   -3.0546    0.0005 C   0  0  0  0  0  0  0  0  0  0  0  0
   -4.2342    1.7175    2.0045 H   0  0  0  0  0  0  0  0  0  0  0  0
   -5.4729    0.4072   -0.4880 H   0  0  0  0  0  0  0  0  0  0  0  0
   -5.9858    0.1368    1.1570 H   0  0  0  0  0  0  0  0  0  0  0  0
   -3.5681    1.9785   -0.9655 H   0  0  0  0  0  0  0  0  0  0  0  0
   -3.2624    3.3020    0.2060 H   0  0  0  0  0  0  0  0  0  0  0  0
   -3.3668   -0.5468   -1.3380 H   0  0  0  0  0  0  0  0  0  0  0  0
   -6.4112    2.4743    1.4171 H   0  0  0  0  0  0  0  0  0  0  0  0
   -5.3104    3.6485    1.1593 H   0  0  0  0  0  0  0  0  0  0  0  0
   -4.6585   -1.2199    2.7165 H   0  0  0  0  0  0  0  0  0  0  0  0
    2.0894   -0.8770   -0.4584 H   0  0  0  0  0  0  0  0  0  0  0  0
   -3.0441   -3.0784    2.9189 H   0  0  0  0  0  0  0  0  0  0  0  0
   -1.5909   -3.6793    1.0242 H   0  0  0  0  0  0  0  0  0  0  0  0
    0.2425    0.6789    1.0823 H   0  0  0  0  0  0  0  0  0  0  0  0
    5.5048    2.6305    1.0436 H   0  0  0  0  0  0  0  0  0  0  0  0
    6.6871   -2.1761    0.9136 H   0  0  0  0  0  0  0  0  0  0  0  0
   -1.9184    3.3514   -1.5160 H   0  0  0  0  0  0  0  0  0  0  0  0
    2.1112    3.0325   -1.9996 H   0  0  0  0  0  0  0  0  0  0  0  0
    3.3201   -3.2929    0.6184 H   0  0  0  0  0  0  0  0  0  0  0  0
    4.9510   -3.8222    0.1835 H   0  0  0  0  0  0  0  0  0  0  0  0
    3.8943   -3.1223   -1.0508 H   0  0  0  0  0  0  0  0  0  0  0  0
  1 27  1  0  0  0  0
  2 27  1  0  0  0  0
  3 27  1  0  0  0  0
  4 12  1  0  0  0  0
  4 18  1  0  0  0  0
  5 10  1  0  0  0  0
  5 38  1  0  0  0  0
  5 39  1  0  0  0  0
  6  8  1  0  0  0  0
  6 21  1  0  0  0  0
  6 46  1  0  0  0  0
  7 19  1  0  0  0  0
  7 28  2  0  0  0  0
  8 23  2  0  0  0  0
  9 29  1  0  0  0  0
  9 30  2  0  0  0  0
 10 11  1  0  0  0  0
 10 12  1  0  0  0  0
 10 32  1  0  0  0  0
 11 13  1  0  0  0  0
 11 33  1  0  0  0  0
 11 34  1  0  0  0  0
 12 35  1  0  0  0  0
 12 36  1  0  0  0  0
 13 14  2  0  0  0  0
 13 15  1  0  0  0  0
 14 16  1  0  0  0  0
 14 37  1  0  0  0  0
 15 22  2  0  0  0  0
 15 40  1  0  0  0  0
 16 25  2  0  0  0  0
 16 27  1  0  0  0  0
 17 21  2  0  0  0  0
 17 23  1  0  0  0  0
 17 24  1  0  0  0  0
 18 26  1  0  0  0  0
 18 29  2  0  0  0  0
 19 20  1  0  0  0  0
 19 24  2  0  0  0  0
 20 26  2  0  0  0  0
 20 30  1  0  0  0  0
 21 31  1  0  0  0  0
 22 25  1  0  0  0  0
 22 42  1  0  0  0  0
 23 28  1  0  0  0  0
 24 41  1  0  0  0  0
 25 43  1  0  0  0  0
 26 44  1  0  0  0  0
 28 45  1  0  0  0  0
 29 47  1  0  0  0  0
 30 48  1  0  0  0  0
 31 49  1  0  0  0  0
 31 50  1  0  0  0  0
 31 51  1  0  0  0  0
M  END
> <PUBCHEM_COMPOUND_CID>
49830966

> <PUBCHEM_CONFORMER_RMSD>
1.4

> <PUBCHEM_CONFORMER_DIVERSEORDER>
1
11
124
83
34
24
58
42
14
65
96
27
47
114
101
90
69
122
100
40
110
111
21
16
87
79
36
75
17
106
13
64
93
99
98
61
31
52
25
107
60
23
112
70
3
20
39
32
121
73
85
10
81
94
117
56
102
62
50
103
54
53
76
108
5
19
66
86
118
116
12
67
104
89
109
113
97
6
119
9
7
88
63
41
30
38
82
78
92
35
29
55
15
8
44
95
77
71
37
105
115
28
91
48
43
46
72
80
4
59
84
22
18
26
49
51
123
57
2
45
120
74
33
68

> <PUBCHEM_MMFF94_PARTIAL_CHARGES>
41
1 -0.34
10 0.27
11 0.14
12 0.28
13 -0.14
14 -0.15
15 -0.15
16 -0.14
18 0.08
19 0.31
2 -0.34
21 -0.33
22 -0.15
23 0.29
24 -0.15
25 -0.15
26 -0.15
27 1.16
28 0.16
29 0.16
3 -0.34
30 0.16
31 0.18
37 0.15
38 0.36
39 0.36
4 -0.36
40 0.15
41 0.15
42 0.15
43 0.15
44 0.15
45 0.15
46 0.27
47 0.15
48 0.15
5 -0.99
6 0.3
7 -0.62
8 -0.71
9 -0.62

> <PUBCHEM_EFFECTIVE_ROTOR_COUNT>
7

> <PUBCHEM_PHARMACOPHORE_FEATURES>
11
1 4 acceptor
1 5 cation
1 5 donor
1 6 donor
1 7 acceptor
1 8 acceptor
1 9 acceptor
5 6 8 17 21 23 rings
6 13 14 15 16 22 25 rings
6 7 17 19 23 24 28 rings
6 9 18 20 26 29 30 rings

> <PUBCHEM_HEAVY_ATOM_COUNT>
31

> <PUBCHEM_ATOM_DEF_STEREO_COUNT>
0

> <PUBCHEM_ATOM_UDEF_STEREO_COUNT>
1

> <PUBCHEM_BOND_DEF_STEREO_COUNT>
0

> <PUBCHEM_BOND_UDEF_STEREO_COUNT>
0

> <PUBCHEM_ISOTOPIC_ATOM_COUNT>
0

> <PUBCHEM_COMPONENT_COUNT>
1

> <PUBCHEM_CACTVS_TAUTO_COUNT>
3

> <PUBCHEM_CONFORMER_ID>
02F85C3600000001

> <PUBCHEM_MMFF94_ENERGY>
82.9511

> <PUBCHEM_FEATURE_SELFOVERLAP>
55.959

> <PUBCHEM_SHAPE_FINGERPRINT>
10483366 6 17986652940427704863
11014199 57 17836079353319059022
11524674 6 18060133189792876165
11552529 35 18059002995056017088
11578080 2 17559372825540963288
11756154 5 17545596756990497614
12422481 6 18343303652262380326
12633257 1 17130999813571850330
13402501 40 18268433425543958871
13726171 33 17833879088633453069
14279260 333 17677883553624815290
15361156 5 18335707143864284846
16110190 28 18408326596543816776
16728300 4 18335422409071349691
17492 89 17899145076881950851
17974551 9 18337960120177346721
1813 80 17240484714932372980
19141452 34 18335703818916623537
19319366 153 16821387450113245549
21315759 227 17388534088603267546
21795232 338 18343297098870092000
229767 44 18411138026227194739
238918 7 18199755747624817399
3383291 50 18335140917099282739
338550 245 18335424577881380804
469060 322 16081368561498150514
5080951 261 17315324009243957620
9953998 17 18341037567925727888

> <PUBCHEM_SHAPE_MULTIPOLES>
585.37
12.88
4.65
1.59
10.18
0.65
0.59
1.54
-6.41
-1.94
1.31
-1.23
0.81
-0.4

> <PUBCHEM_SHAPE_SELFOVERLAP>
1284.92

> <PUBCHEM_SHAPE_VOLUME>
318.6

> <PUBCHEM_COORDINATE_TYPE>
2
5
10

$$$$
