112928
  -OEChem-10052120443D

 28 29  0     0  0  0  0  0  0999 V2000
   -2.4783   -0.0261    0.0002 N   0  0  0  0  0  0  0  0  0  0  0  0
    2.7243    2.0977    0.0005 N   0  0  0  0  0  0  0  0  0  0  0  0
   -0.0477   -0.4185   -0.0003 C   0  0  0  0  0  0  0  0  0  0  0  0
   -1.1464    0.4561    0.0004 C   0  0  0  0  0  0  0  0  0  0  0  0
    1.2627    0.1164   -0.0002 C   0  0  0  0  0  0  0  0  0  0  0  0
    1.4355    1.5101    0.0008 C   0  0  0  0  0  0  0  0  0  0  0  0
   -0.9563    1.8384    0.0015 C   0  0  0  0  0  0  0  0  0  0  0  0
   -0.2206   -1.8121   -0.0013 C   0  0  0  0  0  0  0  0  0  0  0  0
    0.3323    2.3642    0.0017 C   0  0  0  0  0  0  0  0  0  0  0  0
    2.3614   -0.7583   -0.0008 C   0  0  0  0  0  0  0  0  0  0  0  0
    0.8826   -2.6663   -0.0016 C   0  0  0  0  0  0  0  0  0  0  0  0
   -3.1629   -0.2729   -1.2497 C   0  0  0  0  0  0  0  0  0  0  0  0
   -3.1576   -0.2882    1.2500 C   0  0  0  0  0  0  0  0  0  0  0  0
    2.1711   -2.1405   -0.0013 C   0  0  0  0  0  0  0  0  0  0  0  0
   -1.8067    2.5158    0.0022 H   0  0  0  0  0  0  0  0  0  0  0  0
   -1.2076   -2.2678    0.0003 H   0  0  0  0  0  0  0  0  0  0  0  0
    0.4634    3.4435    0.0024 H   0  0  0  0  0  0  0  0  0  0  0  0
    3.3892   -0.4088   -0.0006 H   0  0  0  0  0  0  0  0  0  0  0  0
    0.7354   -3.7424   -0.0016 H   0  0  0  0  0  0  0  0  0  0  0  0
   -2.7469   -1.1522   -1.7519 H   0  0  0  0  0  0  0  0  0  0  0  0
   -3.0668    0.5860   -1.9231 H   0  0  0  0  0  0  0  0  0  0  0  0
   -4.2335   -0.4478   -1.0991 H   0  0  0  0  0  0  0  0  0  0  0  0
   -2.5042   -0.8147    1.9543 H   0  0  0  0  0  0  0  0  0  0  0  0
   -4.0471   -0.9106    1.1059 H   0  0  0  0  0  0  0  0  0  0  0  0
   -3.4748    0.6521    1.7129 H   0  0  0  0  0  0  0  0  0  0  0  0
    3.0290   -2.8067   -0.0014 H   0  0  0  0  0  0  0  0  0  0  0  0
    2.8050    3.1066    0.0018 H   0  0  0  0  0  0  0  0  0  0  0  0
    3.5685    1.5462    0.0010 H   0  0  0  0  0  0  0  0  0  0  0  0
  1  4  1  0  0  0  0
  1 12  1  0  0  0  0
  1 13  1  0  0  0  0
  2  6  1  0  0  0  0
  2 27  1  0  0  0  0
  2 28  1  0  0  0  0
  3  4  1  0  0  0  0
  3  5  1  0  0  0  0
  3  8  2  0  0  0  0
  4  7  2  0  0  0  0
  5  6  1  0  0  0  0
  5 10  2  0  0  0  0
  6  9  2  0  0  0  0
  7  9  1  0  0  0  0
  7 15  1  0  0  0  0
  8 11  1  0  0  0  0
  8 16  1  0  0  0  0
  9 17  1  0  0  0  0
 10 14  1  0  0  0  0
 10 18  1  0  0  0  0
 11 14  2  0  0  0  0
 11 19  1  0  0  0  0
 12 20  1  0  0  0  0
 12 21  1  0  0  0  0
 12 22  1  0  0  0  0
 13 23  1  0  0  0  0
 13 24  1  0  0  0  0
 13 25  1  0  0  0  0
 14 26  1  0  0  0  0
M  END
> <PUBCHEM_COMPOUND_CID>
112928

> <PUBCHEM_CONFORMER_RMSD>
0.4

> <PUBCHEM_CONFORMER_DIVERSEORDER>
1

> <PUBCHEM_MMFF94_PARTIAL_CHARGES>
20
1 -0.84
10 -0.15
11 -0.15
12 0.37
13 0.37
14 -0.15
15 0.15
16 0.15
17 0.15
18 0.15
19 0.15
2 -0.9
26 0.15
27 0.4
28 0.4
4 0.1
6 0.1
7 -0.15
8 -0.15
9 -0.15

> <PUBCHEM_EFFECTIVE_ROTOR_COUNT>
1

> <PUBCHEM_PHARMACOPHORE_FEATURES>
5
1 1 cation
1 2 cation
1 2 donor
6 3 4 5 6 7 9 rings
6 3 5 8 10 11 14 rings

> <PUBCHEM_HEAVY_ATOM_COUNT>
14

> <PUBCHEM_ATOM_DEF_STEREO_COUNT>
0

> <PUBCHEM_ATOM_UDEF_STEREO_COUNT>
0

> <PUBCHEM_BOND_DEF_STEREO_COUNT>
0

> <PUBCHEM_BOND_UDEF_STEREO_COUNT>
0

> <PUBCHEM_ISOTOPIC_ATOM_COUNT>
0

> <PUBCHEM_COMPONENT_COUNT>
1

> <PUBCHEM_CACTVS_TAUTO_COUNT>
1

> <PUBCHEM_CONFORMER_ID>
0001B92000000001

> <PUBCHEM_MMFF94_ENERGY>
77.5777

> <PUBCHEM_FEATURE_SELFOVERLAP>
25.398

> <PUBCHEM_SHAPE_FINGERPRINT>
10967382 1 18410575127654982374
11206711 2 18192153689738526534
11471102 22 18263945313753105691
12423570 1 10629434060611923719
13140716 1 18338517568309440442
13380535 76 18267295628893970498
14251717 144 18339913900889941847
16945 1 18410575054725142246
17990270 104 18265049132990427531
193761 8 18194683657452063972
20645477 70 18410282619614410807
20871998 184 17478890489563488543
21501502 16 18193840331943583700
22112679 90 17489866042676593773
22802520 49 17121146763548077398
2334 1 18050567640547519406
23388829 49 18270104730430890774
23419403 2 16676330701441147216
23552423 10 18338234847459715837
23559900 14 15821565676748541390
241688 4 17905888072241099666
2748010 2 18193846074536417574
54173680 148 17328870893939948098
63268167 104 18341888645179620581
6338986 31 17979048528039738839
7364860 26 18341894069633625144
77492 1 17703791427318118723
81228 2 17473820628430912872

> <PUBCHEM_SHAPE_MULTIPOLES>
278.15
4.12
2.87
0.84
2.25
0.31
0
-0.74
0
-1.92
0
0.72
-0.13
0

> <PUBCHEM_SHAPE_SELFOVERLAP>
600.301

> <PUBCHEM_SHAPE_VOLUME>
152.7

> <PUBCHEM_COORDINATE_TYPE>
2
5
10

$$$$
