49830512
  -OEChem-10052115183D

 53 55  0     0  0  0  0  0  0999 V2000
    0.7646    2.5243    1.4903 S   0  0  0  0  0  0  0  0  0  0  0  0
   -4.2018   -4.0283    0.3129 F   0  0  0  0  0  0  0  0  0  0  0  0
    1.9557    2.2437    0.7036 O   0  0  0  0  0  0  0  0  0  0  0  0
    0.7911    3.5712    2.5002 O   0  0  0  0  0  0  0  0  0  0  0  0
    3.6655   -2.2196   -0.6401 O   0  0  0  0  0  0  0  0  0  0  0  0
    6.2370   -1.7479    0.0019 O   0  0  0  0  0  0  0  0  0  0  0  0
   -3.7829    1.3172   -0.5706 N   0  0  0  0  0  0  0  0  0  0  0  0
    0.2240    1.0747    2.2133 N   0  0  0  0  0  0  0  0  0  0  0  0
   -1.7499   -2.7897    0.5562 N   0  0  0  0  0  0  0  0  0  0  0  0
   -2.7520   -0.7143   -0.0088 N   0  0  0  0  0  0  0  0  0  0  0  0
   -5.1138   -0.6129   -0.4767 N   0  0  0  0  0  0  0  0  0  0  0  0
    6.0861    0.4860   -0.6264 N   0  0  0  0  0  0  0  0  0  0  0  0
   -0.5544    2.8552    0.3887 C   0  0  0  0  0  0  0  0  0  0  0  0
   -0.5414    3.9802   -0.4361 C   0  0  0  0  0  0  0  0  0  0  0  0
   -2.6964    2.2105   -0.5245 C   0  0  0  0  0  0  0  0  0  0  0  0
   -1.6320    1.9705    0.3444 C   0  0  0  0  0  0  0  0  0  0  0  0
   -1.6061    4.2204   -1.3049 C   0  0  0  0  0  0  0  0  0  0  0  0
   -2.6834    3.3355   -1.3493 C   0  0  0  0  0  0  0  0  0  0  0  0
    0.5963    4.9479   -0.4131 C   0  0  0  0  0  0  0  0  0  0  0  0
   -3.8881   -0.0719   -0.3408 C   0  0  0  0  0  0  0  0  0  0  0  0
   -0.3799   -2.6448    0.2547 C   0  0  0  0  0  0  0  0  0  0  0  0
   -2.8888   -2.0396    0.2040 C   0  0  0  0  0  0  0  0  0  0  0  0
    0.5452   -3.5615    0.7544 C   0  0  0  0  0  0  0  0  0  0  0  0
    0.0501   -1.5854   -0.5445 C   0  0  0  0  0  0  0  0  0  0  0  0
    2.3299   -2.3598   -0.3444 C   0  0  0  0  0  0  0  0  0  0  0  0
    1.9000   -3.4192    0.4548 C   0  0  0  0  0  0  0  0  0  0  0  0
    1.4050   -1.4428   -0.8439 C   0  0  0  0  0  0  0  0  0  0  0  0
   -4.0882   -2.7136    0.0973 C   0  0  0  0  0  0  0  0  0  0  0  0
   -5.1781   -1.9413   -0.2495 C   0  0  0  0  0  0  0  0  0  0  0  0
    4.1444   -0.9084   -0.8510 C   0  0  0  0  0  0  0  0  0  0  0  0
    5.5971   -0.7976   -0.4402 C   0  0  0  0  0  0  0  0  0  0  0  0
    7.4451    0.8614   -0.3117 C   0  0  0  0  0  0  0  0  0  0  0  0
   -1.6915    1.1261    1.0158 H   0  0  0  0  0  0  0  0  0  0  0  0
   -1.6130    5.0915   -1.9546 H   0  0  0  0  0  0  0  0  0  0  0  0
   -3.5062    3.5332   -2.0316 H   0  0  0  0  0  0  0  0  0  0  0  0
    0.4395    5.7686   -1.1225 H   0  0  0  0  0  0  0  0  0  0  0  0
    1.5323    4.4598   -0.7006 H   0  0  0  0  0  0  0  0  0  0  0  0
    0.7033    5.4042    0.5754 H   0  0  0  0  0  0  0  0  0  0  0  0
   -4.6388    1.7146   -0.9460 H   0  0  0  0  0  0  0  0  0  0  0  0
   -0.0810    1.1152    3.1935 H   0  0  0  0  0  0  0  0  0  0  0  0
    0.7161    0.2069    1.9678 H   0  0  0  0  0  0  0  0  0  0  0  0
   -1.9601   -3.5992    1.1339 H   0  0  0  0  0  0  0  0  0  0  0  0
    0.2241   -4.3917    1.3784 H   0  0  0  0  0  0  0  0  0  0  0  0
   -0.6253   -0.8648   -0.9886 H   0  0  0  0  0  0  0  0  0  0  0  0
    2.6163   -4.1361    0.8466 H   0  0  0  0  0  0  0  0  0  0  0  0
    1.6963   -0.6235   -1.4948 H   0  0  0  0  0  0  0  0  0  0  0  0
   -6.1628   -2.3831   -0.3573 H   0  0  0  0  0  0  0  0  0  0  0  0
    3.5991   -0.1702   -0.2479 H   0  0  0  0  0  0  0  0  0  0  0  0
    4.0630   -0.6559   -1.9144 H   0  0  0  0  0  0  0  0  0  0  0  0
    5.4652    1.2095   -0.9771 H   0  0  0  0  0  0  0  0  0  0  0  0
    7.4360    1.4195    0.6277 H   0  0  0  0  0  0  0  0  0  0  0  0
    7.8180    1.5039   -1.1128 H   0  0  0  0  0  0  0  0  0  0  0  0
    8.0845   -0.0190   -0.2116 H   0  0  0  0  0  0  0  0  0  0  0  0
  1  3  2  0  0  0  0
  1  4  2  0  0  0  0
  1  8  1  0  0  0  0
  1 13  1  0  0  0  0
  2 28  1  0  0  0  0
  5 25  1  0  0  0  0
  5 30  1  0  0  0  0
  6 31  2  0  0  0  0
  7 15  1  0  0  0  0
  7 20  1  0  0  0  0
  7 39  1  0  0  0  0
  8 40  1  0  0  0  0
  8 41  1  0  0  0  0
  9 21  1  0  0  0  0
  9 22  1  0  0  0  0
  9 42  1  0  0  0  0
 10 20  1  0  0  0  0
 10 22  2  0  0  0  0
 11 20  2  0  0  0  0
 11 29  1  0  0  0  0
 12 31  1  0  0  0  0
 12 32  1  0  0  0  0
 12 50  1  0  0  0  0
 13 14  2  0  0  0  0
 13 16  1  0  0  0  0
 14 17  1  0  0  0  0
 14 19  1  0  0  0  0
 15 16  2  0  0  0  0
 15 18  1  0  0  0  0
 16 33  1  0  0  0  0
 17 18  2  0  0  0  0
 17 34  1  0  0  0  0
 18 35  1  0  0  0  0
 19 36  1  0  0  0  0
 19 37  1  0  0  0  0
 19 38  1  0  0  0  0
 21 23  2  0  0  0  0
 21 24  1  0  0  0  0
 22 28  1  0  0  0  0
 23 26  1  0  0  0  0
 23 43  1  0  0  0  0
 24 27  2  0  0  0  0
 24 44  1  0  0  0  0
 25 26  2  0  0  0  0
 25 27  1  0  0  0  0
 26 45  1  0  0  0  0
 27 46  1  0  0  0  0
 28 29  2  0  0  0  0
 29 47  1  0  0  0  0
 30 31  1  0  0  0  0
 30 48  1  0  0  0  0
 30 49  1  0  0  0  0
 32 51  1  0  0  0  0
 32 52  1  0  0  0  0
 32 53  1  0  0  0  0
M  END
> <PUBCHEM_COMPOUND_CID>
49830512

> <PUBCHEM_CONFORMER_RMSD>
1.2

> <PUBCHEM_CONFORMER_DIVERSEORDER>
1
117
127
82
114
27
115
81
108
103
18
48
122
72
118
5
101
71
42
47
64
24
111
63
34
125
119
41
46
55
26
31
104
6
88
90
106
120
67
61
107
78
49
128
36
60
73
17
68
124
70
123
112
99
16
4
98
38
66
65
56
53
8
40
79
33
89
52
94
39
83
21
95
11
132
75
43
96
20
131
93
80
86
126
91
2
84
23
74
85
35
100
19
51
97
59
76
113
57
7
62
109
13
129
116
45
92
30
10
14
69
9
87
3
58
130
50
15
37
29
105
102
121
110
28
12
133
54
32
44
22
77
25

> <PUBCHEM_MMFF94_PARTIAL_CHARGES>
45
1 1.45
10 -0.62
11 -0.62
12 -0.73
13 -0.01
14 -0.14
15 0.1
16 -0.15
17 -0.15
18 -0.15
19 0.14
2 -0.19
20 0.72
21 0.1
22 0.41
23 -0.15
24 -0.15
25 0.08
26 -0.15
27 -0.15
28 0.19
29 0.16
3 -0.65
30 0.34
31 0.57
32 0.3
33 0.15
34 0.15
35 0.15
39 0.4
4 -0.65
40 0.42
41 0.42
42 0.4
43 0.15
44 0.15
45 0.15
46 0.15
47 0.15
5 -0.36
50 0.37
6 -0.57
7 -0.6
8 -0.98
9 -0.6

> <PUBCHEM_EFFECTIVE_ROTOR_COUNT>
9

> <PUBCHEM_PHARMACOPHORE_FEATURES>
12
1 12 donor
1 3 acceptor
1 4 acceptor
1 5 acceptor
1 6 acceptor
1 7 donor
1 8 donor
1 9 donor
4 7 10 11 20 cation
6 10 11 20 22 28 29 rings
6 13 14 15 16 17 18 rings
6 21 23 24 25 26 27 rings

> <PUBCHEM_HEAVY_ATOM_COUNT>
32

> <PUBCHEM_ATOM_DEF_STEREO_COUNT>
0

> <PUBCHEM_ATOM_UDEF_STEREO_COUNT>
0

> <PUBCHEM_BOND_DEF_STEREO_COUNT>
0

> <PUBCHEM_BOND_UDEF_STEREO_COUNT>
0

> <PUBCHEM_ISOTOPIC_ATOM_COUNT>
0

> <PUBCHEM_COMPONENT_COUNT>
1

> <PUBCHEM_CACTVS_TAUTO_COUNT>
18

> <PUBCHEM_CONFORMER_ID>
02F85A7000000001

> <PUBCHEM_MMFF94_ENERGY>
94.2859

> <PUBCHEM_FEATURE_SELFOVERLAP>
60.922

> <PUBCHEM_SHAPE_FINGERPRINT>
100830 39 18336829676896750950
11513181 2 17549545557709755607
12788726 201 18260545572023486131
13402501 40 18341893043231328586
13561361 72 18339068394029309368
14114211 80 17768531587143453993
14394314 77 18337961069755911765
14765038 42 18057341491205113105
14790565 3 17404870250344150473
14932702 115 18055342540553405536
15064986 96 17975967993328198243
15320467 1 18120654635044730436
15347590 135 17894925052043849907
15961568 22 18411423925321102438
16992787 43 18192708939760728381
19319366 153 17186985507461877829
20531524 4 18052791720404692352
20764821 26 18336558203928233661
21049683 271 18338802333252133443
21344244 246 17764579216398668759
23559900 14 18265326382410246583
238918 7 17983266486324039785
3493558 16 18113912575851159310
373842 8 18192714660356128676
469060 322 18337969929887776328
4756261 7 17838367115389767505
50150288 127 16341180801515778656
5047190 69 18341041970351134208
5265222 85 17043732886026488120
9980921 221 18050033029622105958

> <PUBCHEM_SHAPE_MULTIPOLES>
601.76
11.62
7.1
1.27
18.65
4.4
0.67
-5.87
-3.39
-3.84
0.29
0.17
1.23
1.35

> <PUBCHEM_SHAPE_SELFOVERLAP>
1275.343

> <PUBCHEM_SHAPE_VOLUME>
339.2

> <PUBCHEM_COORDINATE_TYPE>
2
5
10

$$$$
