24905326
  -OEChem-10052115143D

 36 39  0     0  0  0  0  0  0999 V2000
   -5.9121    0.7760    0.3387 Cl  0  0  0  0  0  0  0  0  0  0  0  0
   -4.1385    0.9313   -2.0838 O   0  0  0  0  0  0  0  0  0  0  0  0
    2.0365    0.6080    0.3477 N   0  0  0  0  0  0  0  0  0  0  0  0
    0.7990    1.1328    0.4176 N   0  0  0  0  0  0  0  0  0  0  0  0
    3.1245   -1.5319    0.0321 N   0  0  0  0  0  0  0  0  0  0  0  0
    1.5051   -3.3338   -0.2531 N   0  0  0  0  0  0  0  0  0  0  0  0
   -0.8529   -2.9662   -0.2176 N   0  0  0  0  0  0  0  0  0  0  0  0
    3.2326    1.4210    0.4798 C   0  0  0  0  0  0  0  0  0  0  0  0
    3.9847    1.5901   -0.8568 C   0  0  0  0  0  0  0  0  0  0  0  0
    2.9321    2.9328    0.4141 C   0  0  0  0  0  0  0  0  0  0  0  0
    4.1938    3.0675   -0.4636 C   0  0  0  0  0  0  0  0  0  0  0  0
    2.0462   -0.7399    0.1437 C   0  0  0  0  0  0  0  0  0  0  0  0
    0.7190   -1.1255    0.0753 C   0  0  0  0  0  0  0  0  0  0  0  0
    0.0011    0.0722    0.2510 C   0  0  0  0  0  0  0  0  0  0  0  0
   -1.4296    0.2438    0.2649 C   0  0  0  0  0  0  0  0  0  0  0  0
    0.4628   -2.4769   -0.1313 C   0  0  0  0  0  0  0  0  0  0  0  0
    2.7533   -2.8154   -0.1650 C   0  0  0  0  0  0  0  0  0  0  0  0
   -2.1122    0.5082   -0.9226 C   0  0  0  0  0  0  0  0  0  0  0  0
   -2.1321    0.1454    1.4660 C   0  0  0  0  0  0  0  0  0  0  0  0
   -3.4970    0.6739   -0.9089 C   0  0  0  0  0  0  0  0  0  0  0  0
   -3.5169    0.3112    1.4797 C   0  0  0  0  0  0  0  0  0  0  0  0
   -4.1994    0.5755    0.2923 C   0  0  0  0  0  0  0  0  0  0  0  0
    3.8681    1.1321    1.3256 H   0  0  0  0  0  0  0  0  0  0  0  0
    3.3756    1.4649   -1.7606 H   0  0  0  0  0  0  0  0  0  0  0  0
    4.9002    1.0018   -0.9641 H   0  0  0  0  0  0  0  0  0  0  0  0
    2.9720    3.4636    1.3696 H   0  0  0  0  0  0  0  0  0  0  0  0
    2.0295    3.2474   -0.1229 H   0  0  0  0  0  0  0  0  0  0  0  0
    5.1121    3.2467    0.1074 H   0  0  0  0  0  0  0  0  0  0  0  0
    4.1327    3.7910   -1.2802 H   0  0  0  0  0  0  0  0  0  0  0  0
    3.5642   -3.5287   -0.2670 H   0  0  0  0  0  0  0  0  0  0  0  0
   -1.5652    0.5847   -1.8601 H   0  0  0  0  0  0  0  0  0  0  0  0
   -1.6148   -0.0608    2.4000 H   0  0  0  0  0  0  0  0  0  0  0  0
   -1.6491   -2.3518   -0.1322 H   0  0  0  0  0  0  0  0  0  0  0  0
   -0.9946   -3.9558   -0.3699 H   0  0  0  0  0  0  0  0  0  0  0  0
   -4.0499    0.2313    2.4237 H   0  0  0  0  0  0  0  0  0  0  0  0
   -3.4861    0.9622   -2.8045 H   0  0  0  0  0  0  0  0  0  0  0  0
  1 22  1  0  0  0  0
  2 20  1  0  0  0  0
  2 36  1  0  0  0  0
  3  4  1  0  0  0  0
  3  8  1  0  0  0  0
  3 12  1  0  0  0  0
  4 14  2  0  0  0  0
  5 12  2  0  0  0  0
  5 17  1  0  0  0  0
  6 16  1  0  0  0  0
  6 17  2  0  0  0  0
  7 16  1  0  0  0  0
  7 33  1  0  0  0  0
  7 34  1  0  0  0  0
  8  9  1  0  0  0  0
  8 10  1  0  0  0  0
  8 23  1  0  0  0  0
  9 11  1  0  0  0  0
  9 24  1  0  0  0  0
  9 25  1  0  0  0  0
 10 11  1  0  0  0  0
 10 26  1  0  0  0  0
 10 27  1  0  0  0  0
 11 28  1  0  0  0  0
 11 29  1  0  0  0  0
 12 13  1  0  0  0  0
 13 14  1  0  0  0  0
 13 16  2  0  0  0  0
 14 15  1  0  0  0  0
 15 18  2  0  0  0  0
 15 19  1  0  0  0  0
 17 30  1  0  0  0  0
 18 20  1  0  0  0  0
 18 31  1  0  0  0  0
 19 21  2  0  0  0  0
 19 32  1  0  0  0  0
 20 22  2  0  0  0  0
 21 22  1  0  0  0  0
 21 35  1  0  0  0  0
M  END
> <PUBCHEM_COMPOUND_CID>
24905326

> <PUBCHEM_CONFORMER_RMSD>
0.6

> <PUBCHEM_CONFORMER_DIVERSEORDER>
1
8
4
6
7
5
3
2

> <PUBCHEM_MMFF94_PARTIAL_CHARGES>
25
1 -0.18
12 0.11
14 0.23
15 0.05
16 0.41
17 0.47
18 -0.15
19 -0.15
2 -0.53
20 0.08
21 -0.15
22 0.18
3 0.48
30 0.15
31 0.15
32 0.15
33 0.4
34 0.4
35 0.15
36 0.45
4 -0.71
5 -0.57
6 -0.62
7 -0.9
8 0.09

> <PUBCHEM_EFFECTIVE_ROTOR_COUNT>
2.8

> <PUBCHEM_PHARMACOPHORE_FEATURES>
10
1 2 donor
1 4 acceptor
1 7 cation
1 7 donor
3 3 5 12 cation
3 5 6 17 cation
4 8 9 10 11 rings
5 3 4 12 13 14 rings
6 15 18 19 20 21 22 rings
6 5 6 12 13 16 17 rings

> <PUBCHEM_HEAVY_ATOM_COUNT>
22

> <PUBCHEM_ATOM_DEF_STEREO_COUNT>
0

> <PUBCHEM_ATOM_UDEF_STEREO_COUNT>
0

> <PUBCHEM_BOND_DEF_STEREO_COUNT>
0

> <PUBCHEM_BOND_UDEF_STEREO_COUNT>
0

> <PUBCHEM_ISOTOPIC_ATOM_COUNT>
0

> <PUBCHEM_COMPONENT_COUNT>
1

> <PUBCHEM_CACTVS_TAUTO_COUNT>
15

> <PUBCHEM_CONFORMER_ID>
017C066E00000001

> <PUBCHEM_MMFF94_ENERGY>
60.2132

> <PUBCHEM_FEATURE_SELFOVERLAP>
51.026

> <PUBCHEM_SHAPE_FINGERPRINT>
10165383 225 18337400447295002324
10411042 1 17834681491751259890
10693767 8 17988370252408647838
1100329 8 18411420605607047762
11582403 64 17099698865239581797
11725454 13 17315320774821678501
11796584 16 13830140485301203340
12173636 292 17979633764757683876
12236239 1 17489301928739595123
12390115 104 18051993694439268736
12403259 415 17894913984587652253
12553582 1 17981050712823055570
12730499 353 18337401512441013001
12788726 201 17131561544435379801
12895836 83 17753918287236414324
12895837 130 16740334670129577788
13009979 54 17343791382724433018
13134695 92 18047468933333957566
13140716 1 18411134783991298658
13583140 156 16951383521154746944
13911987 19 18265338489343695373
13955234 65 18410014303700005570
14790565 3 17905617944578962961
15342168 16 18337394936798993141
15502722 9 18410857633408013332
15842332 3 17703229512383270257
15961568 22 17168433743465185597
16945 1 18340208475517093594
17134986 127 18337392759672385388
17138139 8 17484487347742268631
1813 80 17628087689340207790
18186145 218 18343026618213385908
18785283 64 18334858303428229858
19784866 34 18270679891156248088
204376 136 18338238279128061825
20510252 161 17623011609300221890
20645477 70 18336546023548558379
21065201 7 16371013953743926275
21639500 275 18412260610218688282
21756936 100 17344657991160486712
2255824 54 18270965639635785614
22907989 373 17546443839871487292
23557571 272 17168432575655651301
23559900 14 18337669711336429107
23566358 2 18128828610554519662
25147074 1 18268977830203382698
2748010 2 18267035014721473434
283562 15 17691400132873386778
3060560 45 18411141351038381652
312423 11 17916033373589627905
335352 9 18411705396482523244
350125 39 18267309926919538698
3729539 64 18121812507220764630
458136 41 18411427223560228906
469060 322 17901391422224807059
474 4 18341896298494902688
495365 180 18411412912592250296
6025842 7 18412545392684239775
6034566 193 17973452284242386525
621550 34 18187365411595432829
6327066 14 18191303990800435004
633830 44 18059310810734890253
7364860 26 18411422769985072058
77492 1 17489301937271435963
81228 2 17329146287669618712
8272917 22 18341899550001397317
9999458 23 18334861584799412782

> <PUBCHEM_SHAPE_MULTIPOLES>
423.85
9.43
3.46
1.14
8.2
1.99
-0.18
-6.78
-0.83
-5.28
-0.38
1.24
-0.38
0.15

> <PUBCHEM_SHAPE_SELFOVERLAP>
934.953

> <PUBCHEM_SHAPE_VOLUME>
229.9

> <PUBCHEM_COORDINATE_TYPE>
2
5
10

$$$$
