24905291
  -OEChem-10052115153D

 33 35  0     0  0  0  0  0  0999 V2000
    4.8231   -0.2058    0.0973 O   0  0  0  0  0  0  0  0  0  0  0  0
    3.4666    0.0565   -2.3142 O   0  0  0  0  0  0  0  0  0  0  0  0
   -2.5196    1.7168    0.0726 N   0  0  0  0  0  0  0  0  0  0  0  0
   -1.1855    1.8949    0.0864 N   0  0  0  0  0  0  0  0  0  0  0  0
   -4.1475   -0.0748    0.0227 N   0  0  0  0  0  0  0  0  0  0  0  0
   -3.0762   -2.2661   -0.0155 N   0  0  0  0  0  0  0  0  0  0  0  0
   -0.7055   -2.5432   -0.0026 N   0  0  0  0  0  0  0  0  0  0  0  0
   -1.7205   -0.3264    0.0355 C   0  0  0  0  0  0  0  0  0  0  0  0
   -0.7046    0.6471    0.0635 C   0  0  0  0  0  0  0  0  0  0  0  0
   -2.8943    0.4064    0.0422 C   0  0  0  0  0  0  0  0  0  0  0  0
    0.7199    0.4283    0.0692 C   0  0  0  0  0  0  0  0  0  0  0  0
   -1.8402   -1.7119    0.0054 C   0  0  0  0  0  0  0  0  0  0  0  0
    1.4175    0.3471   -1.1359 C   0  0  0  0  0  0  0  0  0  0  0  0
    1.4008    0.2967    1.2795 C   0  0  0  0  0  0  0  0  0  0  0  0
   -3.3916    2.8673    0.0906 C   0  0  0  0  0  0  0  0  0  0  0  0
    2.7962    0.1346   -1.1308 C   0  0  0  0  0  0  0  0  0  0  0  0
    2.7794    0.0839    1.2845 C   0  0  0  0  0  0  0  0  0  0  0  0
    3.4771    0.0030    0.0794 C   0  0  0  0  0  0  0  0  0  0  0  0
   -4.1379   -1.4250   -0.0057 C   0  0  0  0  0  0  0  0  0  0  0  0
    5.4429   -0.3295    1.3759 C   0  0  0  0  0  0  0  0  0  0  0  0
    0.8882    0.4486   -2.0812 H   0  0  0  0  0  0  0  0  0  0  0  0
    0.8703    0.3568    2.2271 H   0  0  0  0  0  0  0  0  0  0  0  0
   -3.1920    3.4337    1.0038 H   0  0  0  0  0  0  0  0  0  0  0  0
   -3.1750    3.4747   -0.7919 H   0  0  0  0  0  0  0  0  0  0  0  0
   -4.4357    2.5472    0.0733 H   0  0  0  0  0  0  0  0  0  0  0  0
    3.2416   -0.0094    2.2612 H   0  0  0  0  0  0  0  0  0  0  0  0
   -5.1121   -1.9017   -0.0232 H   0  0  0  0  0  0  0  0  0  0  0  0
    0.2279   -2.1593    0.0123 H   0  0  0  0  0  0  0  0  0  0  0  0
   -0.8374   -3.5455   -0.0247 H   0  0  0  0  0  0  0  0  0  0  0  0
    2.8347    0.1697   -3.0449 H   0  0  0  0  0  0  0  0  0  0  0  0
    6.5119   -0.4907    1.2016 H   0  0  0  0  0  0  0  0  0  0  0  0
    5.0741   -1.2055    1.9201 H   0  0  0  0  0  0  0  0  0  0  0  0
    5.3518    0.5929    1.9595 H   0  0  0  0  0  0  0  0  0  0  0  0
  1 18  1  0  0  0  0
  1 20  1  0  0  0  0
  2 16  1  0  0  0  0
  2 30  1  0  0  0  0
  3  4  1  0  0  0  0
  3 10  1  0  0  0  0
  3 15  1  0  0  0  0
  4  9  2  0  0  0  0
  5 10  2  0  0  0  0
  5 19  1  0  0  0  0
  6 12  1  0  0  0  0
  6 19  2  0  0  0  0
  7 12  1  0  0  0  0
  7 28  1  0  0  0  0
  7 29  1  0  0  0  0
  8  9  1  0  0  0  0
  8 10  1  0  0  0  0
  8 12  2  0  0  0  0
  9 11  1  0  0  0  0
 11 13  2  0  0  0  0
 11 14  1  0  0  0  0
 13 16  1  0  0  0  0
 13 21  1  0  0  0  0
 14 17  2  0  0  0  0
 14 22  1  0  0  0  0
 15 23  1  0  0  0  0
 15 24  1  0  0  0  0
 15 25  1  0  0  0  0
 16 18  2  0  0  0  0
 17 18  1  0  0  0  0
 17 26  1  0  0  0  0
 19 27  1  0  0  0  0
 20 31  1  0  0  0  0
 20 32  1  0  0  0  0
 20 33  1  0  0  0  0
M  END
> <PUBCHEM_COMPOUND_CID>
24905291

> <PUBCHEM_CONFORMER_RMSD>
0.6

> <PUBCHEM_CONFORMER_DIVERSEORDER>
1
2

> <PUBCHEM_MMFF94_PARTIAL_CHARGES>
26
1 -0.36
10 0.11
11 0.05
12 0.41
13 -0.15
14 -0.15
15 0.26
16 0.08
17 -0.15
18 0.08
19 0.47
2 -0.53
20 0.28
21 0.15
22 0.15
26 0.15
27 0.15
28 0.4
29 0.4
3 0.31
30 0.45
4 -0.71
5 -0.57
6 -0.62
7 -0.9
9 0.23

> <PUBCHEM_EFFECTIVE_ROTOR_COUNT>
2

> <PUBCHEM_PHARMACOPHORE_FEATURES>
10
1 1 acceptor
1 2 donor
1 4 acceptor
1 7 cation
1 7 donor
3 3 5 10 cation
3 5 6 19 cation
5 3 4 8 9 10 rings
6 11 13 14 16 17 18 rings
6 5 6 8 10 12 19 rings

> <PUBCHEM_HEAVY_ATOM_COUNT>
20

> <PUBCHEM_ATOM_DEF_STEREO_COUNT>
0

> <PUBCHEM_ATOM_UDEF_STEREO_COUNT>
0

> <PUBCHEM_BOND_DEF_STEREO_COUNT>
0

> <PUBCHEM_BOND_UDEF_STEREO_COUNT>
0

> <PUBCHEM_ISOTOPIC_ATOM_COUNT>
0

> <PUBCHEM_COMPONENT_COUNT>
1

> <PUBCHEM_CACTVS_TAUTO_COUNT>
15

> <PUBCHEM_CONFORMER_ID>
017C064B00000001

> <PUBCHEM_MMFF94_ENERGY>
61.3426

> <PUBCHEM_FEATURE_SELFOVERLAP>
51.025

> <PUBCHEM_SHAPE_FINGERPRINT>
10319926 262 18270662196639451858
1100329 8 14020375131022054274
11315181 36 18187641414847066480
11582403 64 16405561643706918025
11796584 16 18198912405612318126
12236239 1 17748825215440641384
12500047 106 18340760442969918768
12553582 1 18265341788289573787
13140716 1 18267308823455393489
13583140 156 17916283018874716954
13760787 5 16153432719015759108
13862211 1 18338796840548507795
14386348 63 17632582660198490310
15042514 8 18337955718184566971
15375358 24 17704066270770469824
16752209 62 18408597068093636603
16945 1 18411138048224140625
17804303 29 18342175613472114155
18186145 218 17845665741412867368
19049666 15 17702956811581600972
19422 9 17821732740672773850
19862831 5 17458061603137441070
200 152 16732978730304786772
20279233 1 17847064389197032446
20510252 161 18272653441719189105
20600515 1 18342176618495448596
20645477 70 16271649971224185604
21065201 7 18341618075230337142
22112679 90 18040156210183004260
23175994 123 17060624403715940224
23402539 116 18341038684041847701
23557571 272 18273501169605888752
23559900 14 18129671777486027694
23598291 2 17676494934150714836
2748010 2 18051404365160153553
4214541 1 18410852136208830664
43471831 8 18335981974284515051
465052 167 17897742079034899995
474 4 17025168581484264604
5104073 3 18339924921443753728
559249 180 18188482459353249410
573450 72 18261387832616660976
602551 16 18413106178095593194
67856867 119 18115589408588464740
7615 1 17894636980302761852
77492 1 17748547039004166716
9709674 26 18272094876721713582

> <PUBCHEM_SHAPE_MULTIPOLES>
374.95
9.22
2.13
1.22
6.42
0.11
-0.39
-0.78
1.16
-3.64
0.08
1.91
0.06
-0.24

> <PUBCHEM_SHAPE_SELFOVERLAP>
830.469

> <PUBCHEM_SHAPE_VOLUME>
201.4

> <PUBCHEM_COORDINATE_TYPE>
2
5
10

$$$$
