49831032
  -OEChem-10052120443D

 32 34  0     0  0  0  0  0  0999 V2000
   -5.3659    1.7467   -0.0026 O   0  0  0  0  0  0  0  0  0  0  0  0
    0.8808   -0.2264    0.0001 N   0  0  0  0  0  0  0  0  0  0  0  0
    1.6164   -1.3458   -0.0002 N   0  0  0  0  0  0  0  0  0  0  0  0
    1.4983    0.9604    0.0004 N   0  0  0  0  0  0  0  0  0  0  0  0
   -4.6898   -0.5120    0.0003 N   0  0  0  0  0  0  0  0  0  0  0  0
    3.8727    1.3958    0.0003 N   0  0  0  0  0  0  0  0  0  0  0  0
    6.2507    1.4484    0.0003 N   0  0  0  0  0  0  0  0  0  0  0  0
   -0.5104   -0.2977    0.0002 C   0  0  0  0  0  0  0  0  0  0  0  0
    2.8729   -0.8656   -0.0003 C   0  0  0  0  0  0  0  0  0  0  0  0
    2.7806    0.5841    0.0001 C   0  0  0  0  0  0  0  0  0  0  0  0
   -3.2965   -0.4405    0.0003 C   0  0  0  0  0  0  0  0  0  0  0  0
   -1.1452   -1.5398   -0.0001 C   0  0  0  0  0  0  0  0  0  0  0  0
   -1.2688    0.8730    0.0007 C   0  0  0  0  0  0  0  0  0  0  0  0
   -2.5381   -1.6113   -0.0001 C   0  0  0  0  0  0  0  0  0  0  0  0
   -2.6618    0.8017    0.0007 C   0  0  0  0  0  0  0  0  0  0  0  0
    4.0984   -1.5516   -0.0007 C   0  0  0  0  0  0  0  0  0  0  0  0
    5.2072   -0.7034   -0.0005 C   0  0  0  0  0  0  0  0  0  0  0  0
    5.0426    0.6934    0.0000 C   0  0  0  0  0  0  0  0  0  0  0  0
   -5.6103    0.5446    0.0006 C   0  0  0  0  0  0  0  0  0  0  0  0
   -7.0337    0.0460    0.0005 C   0  0  0  0  0  0  0  0  0  0  0  0
   -0.5928   -2.4758   -0.0004 H   0  0  0  0  0  0  0  0  0  0  0  0
   -0.8137    1.8601    0.0011 H   0  0  0  0  0  0  0  0  0  0  0  0
   -3.0199   -2.5859   -0.0003 H   0  0  0  0  0  0  0  0  0  0  0  0
   -3.1811    1.7498    0.0013 H   0  0  0  0  0  0  0  0  0  0  0  0
    4.1844   -2.6299   -0.0012 H   0  0  0  0  0  0  0  0  0  0  0  0
    6.2021   -1.1433   -0.0018 H   0  0  0  0  0  0  0  0  0  0  0  0
   -5.0763   -1.4537    0.0003 H   0  0  0  0  0  0  0  0  0  0  0  0
    6.1558    2.4566    0.0069 H   0  0  0  0  0  0  0  0  0  0  0  0
    7.0697    1.0414    0.4353 H   0  0  0  0  0  0  0  0  0  0  0  0
   -7.7236    0.8939    0.0310 H   0  0  0  0  0  0  0  0  0  0  0  0
   -7.2219   -0.5334   -0.9077 H   0  0  0  0  0  0  0  0  0  0  0  0
   -7.2069   -0.5831    0.8782 H   0  0  0  0  0  0  0  0  0  0  0  0
  1 19  2  0  0  0  0
  2  3  1  0  0  0  0
  2  4  1  0  0  0  0
  2  8  1  0  0  0  0
  3  9  2  0  0  0  0
  4 10  2  0  0  0  0
  5 11  1  0  0  0  0
  5 19  1  0  0  0  0
  5 27  1  0  0  0  0
  6 10  1  0  0  0  0
  6 18  2  0  0  0  0
  7 18  1  0  0  0  0
  7 28  1  0  0  0  0
  7 29  1  0  0  0  0
  8 12  2  0  0  0  0
  8 13  1  0  0  0  0
  9 10  1  0  0  0  0
  9 16  1  0  0  0  0
 11 14  2  0  0  0  0
 11 15  1  0  0  0  0
 12 14  1  0  0  0  0
 12 21  1  0  0  0  0
 13 15  2  0  0  0  0
 13 22  1  0  0  0  0
 14 23  1  0  0  0  0
 15 24  1  0  0  0  0
 16 17  2  0  0  0  0
 16 25  1  0  0  0  0
 17 18  1  0  0  0  0
 17 26  1  0  0  0  0
 19 20  1  0  0  0  0
 20 30  1  0  0  0  0
 20 31  1  0  0  0  0
 20 32  1  0  0  0  0
M  END
> <PUBCHEM_COMPOUND_CID>
49831032

> <PUBCHEM_CONFORMER_RMSD>
0.6

> <PUBCHEM_CONFORMER_DIVERSEORDER>
1
2
3
4

> <PUBCHEM_MMFF94_PARTIAL_CHARGES>
29
1 -0.57
10 0.54
11 0.12
12 -0.15
13 -0.15
14 -0.15
15 -0.15
16 -0.15
17 -0.15
18 0.41
19 0.57
2 0.86
20 0.06
21 0.15
22 0.15
23 0.15
24 0.15
25 0.15
26 0.15
27 0.37
28 0.4
29 0.4
3 -0.71
4 -0.71
5 -0.55
6 -0.57
7 -0.9
8 -0.02
9 0.29

> <PUBCHEM_EFFECTIVE_ROTOR_COUNT>
3

> <PUBCHEM_PHARMACOPHORE_FEATURES>
9
1 1 acceptor
1 3 acceptor
1 5 donor
1 7 donor
3 4 6 10 cation
3 6 7 18 cation
5 2 3 4 9 10 rings
6 6 9 10 16 17 18 rings
6 8 11 12 13 14 15 rings

> <PUBCHEM_HEAVY_ATOM_COUNT>
20

> <PUBCHEM_ATOM_DEF_STEREO_COUNT>
0

> <PUBCHEM_ATOM_UDEF_STEREO_COUNT>
0

> <PUBCHEM_BOND_DEF_STEREO_COUNT>
0

> <PUBCHEM_BOND_UDEF_STEREO_COUNT>
0

> <PUBCHEM_ISOTOPIC_ATOM_COUNT>
0

> <PUBCHEM_COMPONENT_COUNT>
1

> <PUBCHEM_CACTVS_TAUTO_COUNT>
6

> <PUBCHEM_CONFORMER_ID>
02F85C7800000001

> <PUBCHEM_MMFF94_ENERGY>
66.6965

> <PUBCHEM_FEATURE_SELFOVERLAP>
45.862

> <PUBCHEM_SHAPE_FINGERPRINT>
10 15 18114178674934763528
10366900 7 15841837754538031586
10411042 1 17978510833359759230
117890 112 18412263930233760760
12107183 9 17619914954637766698
12236239 1 18343018887039969111
13167372 99 18341614754936086193
13533116 47 17846217709493888222
13785724 45 17618783557268854066
14251764 18 18272371984407234699
14341114 176 18409172103757922788
15048467 5 18410855477382085396
15196674 1 18410575101885483911
17834072 33 18273212010520865191
19141452 34 18409448119905436775
19427546 62 18262802990492787234
19489759 90 14620799288867001347
200 152 17988922271406081531
20281389 69 18259983760621266277
20645477 56 18334572460411770013
20645477 70 18271246019786349662
20681677 155 18260546753202685531
21150785 3 15339116870521681784
21236236 1 18340486768493081351
21267235 1 18411143494000306190
220451 1 16774077367329591671
23402539 116 18201714059717573367
23402655 69 18342173375535858926
23536379 177 18411699868347942691
23559900 14 18272082850723412608
29717793 49 17703795795373738182
300161 21 18343579663982531762
3004659 81 18336829706645010534
335352 9 18410575080906565478
34797466 226 17561090228280870492
34934 24 18410852183247878762
3545911 37 18410293618519025940
4073 2 18041003989567166098
4214541 1 18410856559655626817
42788 4 18410856547155814311
4340502 62 16660363670997387178
4463277 17 18410575080689975437
5104073 3 18408885156803207722
542803 24 17489871526964696027
59682541 35 18335430097505103131
59755656 215 18339648845515487030
59755656 520 17748823034157061275
77779 3 18410575102275711622

> <PUBCHEM_SHAPE_MULTIPOLES>
375.84
15.72
1.62
0.59
7.49
0.1
0
-4.2
0
-0.61
0
0.02
0.02
0

> <PUBCHEM_SHAPE_SELFOVERLAP>
823.12

> <PUBCHEM_SHAPE_VOLUME>
202

> <PUBCHEM_COORDINATE_TYPE>
2
5
10

$$$$
