24905216
  -OEChem-10052115143D

 39 42  0     0  0  0  0  0  0999 V2000
   -7.0254    0.1265   -0.1530 Cl  0  0  0  0  0  0  0  0  0  0  0  0
    2.9475    1.0456    0.0416 N   0  0  0  0  0  0  0  0  0  0  0  0
    1.6606    1.4024   -0.1270 N   0  0  0  0  0  0  0  0  0  0  0  0
    4.3010   -0.9492    0.2672 N   0  0  0  0  0  0  0  0  0  0  0  0
    2.9462   -2.9751    0.1615 N   0  0  0  0  0  0  0  0  0  0  0  0
    0.5778   -2.9291   -0.1315 N   0  0  0  0  0  0  0  0  0  0  0  0
   -4.5409    0.1357   -0.8892 N   0  0  0  0  0  0  0  0  0  0  0  0
    3.9629    2.0675    0.1353 C   0  0  0  0  0  0  0  0  0  0  0  0
    1.8806   -0.8704   -0.0320 C   0  0  0  0  0  0  0  0  0  0  0  0
    3.1354   -0.3031    0.1049 C   0  0  0  0  0  0  0  0  0  0  0  0
    1.0160    0.2312   -0.1710 C   0  0  0  0  0  0  0  0  0  0  0  0
   -0.4091    0.2071   -0.3448 C   0  0  0  0  0  0  0  0  0  0  0  0
    3.7426    2.9701    1.3519 C   0  0  0  0  0  0  0  0  0  0  0  0
    4.0491    2.8953   -1.1493 C   0  0  0  0  0  0  0  0  0  0  0  0
    1.8075   -2.2591    0.0005 C   0  0  0  0  0  0  0  0  0  0  0  0
   -1.2507    0.2309    0.7636 C   0  0  0  0  0  0  0  0  0  0  0  0
   -0.9567    0.1596   -1.6209 C   0  0  0  0  0  0  0  0  0  0  0  0
   -2.6458    0.2074    0.5976 C   0  0  0  0  0  0  0  0  0  0  0  0
   -3.2087    0.1594   -0.6950 C   0  0  0  0  0  0  0  0  0  0  0  0
   -2.3437    0.1363   -1.7856 C   0  0  0  0  0  0  0  0  0  0  0  0
    4.1056   -2.2855    0.2832 C   0  0  0  0  0  0  0  0  0  0  0  0
   -3.5161    0.2307    1.6958 C   0  0  0  0  0  0  0  0  0  0  0  0
   -4.8892    0.2065    1.4987 C   0  0  0  0  0  0  0  0  0  0  0  0
   -5.3463    0.1594    0.1974 C   0  0  0  0  0  0  0  0  0  0  0  0
    4.9260    1.5600    0.2685 H   0  0  0  0  0  0  0  0  0  0  0  0
    2.8111    3.5410    1.2697 H   0  0  0  0  0  0  0  0  0  0  0  0
    4.5663    3.6842    1.4576 H   0  0  0  0  0  0  0  0  0  0  0  0
    3.6895    2.3777    2.2722 H   0  0  0  0  0  0  0  0  0  0  0  0
    3.1294    3.4635   -1.3278 H   0  0  0  0  0  0  0  0  0  0  0  0
    4.2149    2.2495   -2.0187 H   0  0  0  0  0  0  0  0  0  0  0  0
    4.8791    3.6077   -1.0950 H   0  0  0  0  0  0  0  0  0  0  0  0
   -0.8269    0.2674    1.7664 H   0  0  0  0  0  0  0  0  0  0  0  0
   -0.3207    0.1394   -2.5028 H   0  0  0  0  0  0  0  0  0  0  0  0
   -2.7479    0.0989   -2.7956 H   0  0  0  0  0  0  0  0  0  0  0  0
    4.9977   -2.8893    0.4106 H   0  0  0  0  0  0  0  0  0  0  0  0
   -3.1284    0.2677    2.7113 H   0  0  0  0  0  0  0  0  0  0  0  0
   -0.2869   -2.4227   -0.2521 H   0  0  0  0  0  0  0  0  0  0  0  0
    0.5694   -3.9399   -0.1022 H   0  0  0  0  0  0  0  0  0  0  0  0
   -5.5663    0.2243    2.3457 H   0  0  0  0  0  0  0  0  0  0  0  0
  1 24  1  0  0  0  0
  2  3  1  0  0  0  0
  2  8  1  0  0  0  0
  2 10  1  0  0  0  0
  3 11  2  0  0  0  0
  4 10  2  0  0  0  0
  4 21  1  0  0  0  0
  5 15  1  0  0  0  0
  5 21  2  0  0  0  0
  6 15  1  0  0  0  0
  6 37  1  0  0  0  0
  6 38  1  0  0  0  0
  7 19  1  0  0  0  0
  7 24  2  0  0  0  0
  8 13  1  0  0  0  0
  8 14  1  0  0  0  0
  8 25  1  0  0  0  0
  9 10  1  0  0  0  0
  9 11  1  0  0  0  0
  9 15  2  0  0  0  0
 11 12  1  0  0  0  0
 12 16  2  0  0  0  0
 12 17  1  0  0  0  0
 13 26  1  0  0  0  0
 13 27  1  0  0  0  0
 13 28  1  0  0  0  0
 14 29  1  0  0  0  0
 14 30  1  0  0  0  0
 14 31  1  0  0  0  0
 16 18  1  0  0  0  0
 16 32  1  0  0  0  0
 17 20  2  0  0  0  0
 17 33  1  0  0  0  0
 18 19  2  0  0  0  0
 18 22  1  0  0  0  0
 19 20  1  0  0  0  0
 20 34  1  0  0  0  0
 21 35  1  0  0  0  0
 22 23  2  0  0  0  0
 22 36  1  0  0  0  0
 23 24  1  0  0  0  0
 23 39  1  0  0  0  0
M  END
> <PUBCHEM_COMPOUND_CID>
24905216

> <PUBCHEM_CONFORMER_RMSD>
0.6

> <PUBCHEM_CONFORMER_DIVERSEORDER>
1
3
6
4
5
2

> <PUBCHEM_MMFF94_PARTIAL_CHARGES>
28
1 -0.18
10 0.11
11 0.23
12 0.05
15 0.41
16 -0.15
17 -0.15
19 0.31
2 0.31
20 -0.15
21 0.47
22 -0.15
23 -0.15
24 0.49
3 -0.71
32 0.15
33 0.15
34 0.15
35 0.15
36 0.15
37 0.4
38 0.4
39 0.15
4 -0.57
5 -0.62
6 -0.9
7 -0.62
8 0.26

> <PUBCHEM_EFFECTIVE_ROTOR_COUNT>
2

> <PUBCHEM_PHARMACOPHORE_FEATURES>
11
1 3 acceptor
1 6 cation
1 6 donor
1 7 acceptor
3 2 4 10 cation
3 4 5 21 cation
3 8 13 14 hydrophobe
5 2 3 9 10 11 rings
6 12 16 17 18 19 20 rings
6 4 5 9 10 15 21 rings
6 7 18 19 22 23 24 rings

> <PUBCHEM_HEAVY_ATOM_COUNT>
24

> <PUBCHEM_ATOM_DEF_STEREO_COUNT>
0

> <PUBCHEM_ATOM_UDEF_STEREO_COUNT>
0

> <PUBCHEM_BOND_DEF_STEREO_COUNT>
0

> <PUBCHEM_BOND_UDEF_STEREO_COUNT>
0

> <PUBCHEM_ISOTOPIC_ATOM_COUNT>
0

> <PUBCHEM_COMPONENT_COUNT>
1

> <PUBCHEM_CACTVS_TAUTO_COUNT>
5

> <PUBCHEM_CONFORMER_ID>
017C060000000001

> <PUBCHEM_MMFF94_ENERGY>
60.7218

> <PUBCHEM_FEATURE_SELFOVERLAP>
56.131

> <PUBCHEM_SHAPE_FINGERPRINT>
10165383 225 18263369238923531244
10411042 1 18050285861182648810
10554248 39 17774156787510525293
10670039 82 16199889292375608297
10912923 1 17917715704037429705
12035758 1 18262779827966074234
12107183 9 17623017794169257473
12236239 1 17703788098264933115
12390115 104 17907023120977538772
12403259 118 17773881909133835961
12403259 415 17894344458664696157
12596602 18 18131351947233379075
12616971 3 18059848455136207567
12670546 56 18343304734857980641
12730499 353 18335990855938655832
12788726 201 17203619172737808137
13140716 1 18337945814179399458
13533116 47 18412265025872317161
13583140 156 18271249447364969489
13955234 65 18410569583311302058
14341114 328 17989492926831642139
14386348 63 17530971241868282963
14739800 52 16916487264399838648
14790565 3 17684945986775755132
14955137 171 18200320910051151462
15142526 21 17913480526485987144
15238133 3 16988567861950086195
15342168 16 18263365961267236012
15475509 35 16733529530391717434
15880784 105 18408606972536394627
15961568 22 16298959761172755540
17844677 252 18336831892593622797
1813 80 17914063006130262070
18785283 64 18260550039485195108
1979834 28 18041282170161639844
200 152 18341326691906512299
20157964 124 18410012139748585829
204376 136 18264773327528835564
20600515 1 16009035046377164909
20645477 70 18334290942168907662
20739085 24 18335994098913849076
21033648 29 17895183399027378389
21065198 48 18273220772771185361
21065201 7 16443343126884876155
21344244 78 17987503845555852384
22079108 93 18199189675235342377
22122407 14 18129957693443715761
2255824 54 18341894070008366566
23557571 272 17022901203533409621
23559900 14 16660652829607286222
23845131 108 18265330797267849218
239999 70 17748828518565800384
25147074 1 17916852616767866071
3178227 256 18335141969228859906
3633792 109 18337383843842180527
38570 142 18129115579084636500
4340502 62 18411420656824434115
4409770 3 15464419040947518239
458136 41 18336270136762052268
474 4 18199183061049432376
495365 180 18409727387300242128
5104073 3 18410290358602250579
57527293 21 17096077134109498896
6034566 193 17755871057945872932
621550 34 18113613491091705901
633830 44 17987519397844037660
7495541 125 17822013073589363714
77492 1 17775558732552582894
8272917 22 18412547595675350213
8988823 20 18408322159990117711
9981440 41 15762148695542898584

> <PUBCHEM_SHAPE_MULTIPOLES>
465.89
12.51
2.77
1.33
15.13
0.53
-0.07
-2.97
1.58
-6.6
0.24
1.02
-0.49
-0.2

> <PUBCHEM_SHAPE_SELFOVERLAP>
1032.722

> <PUBCHEM_SHAPE_VOLUME>
249.8

> <PUBCHEM_COORDINATE_TYPE>
2
5
10

$$$$
