24894997
  -OEChem-10062122023D

 61 65  0     0  0  0  0  0  0999 V2000
    3.7648    0.2407    0.2131 O   0  0  0  0  0  0  0  0  0  0  0  0
   -4.0421   -2.2722    2.5412 O   0  0  0  0  0  0  0  0  0  0  0  0
   -5.2841    1.2294   -1.1050 O   0  0  0  0  0  0  0  0  0  0  0  0
   -1.4735    3.1688    1.0523 O   0  0  0  0  0  0  0  0  0  0  0  0
   -3.7904    3.4637   -0.4365 O   0  0  0  0  0  0  0  0  0  0  0  0
    2.1821   -1.2950   -0.5138 N   0  0  0  0  0  0  0  0  0  0  0  0
   -2.1933   -3.6808    2.2974 N   0  0  0  0  0  0  0  0  0  0  0  0
   -0.9899   -2.3071    0.9529 C   0  0  0  0  0  0  0  0  0  0  0  0
    0.1296   -1.8714    0.1040 C   0  0  0  0  0  0  0  0  0  0  0  0
    0.1025   -1.5469   -1.2812 C   0  0  0  0  0  0  0  0  0  0  0  0
   -0.9234   -3.6368    1.6379 C   0  0  0  0  0  0  0  0  0  0  0  0
   -2.1303   -1.6395    1.2194 C   0  0  0  0  0  0  0  0  0  0  0  0
    1.4027   -1.1887   -1.6437 C   0  0  0  0  0  0  0  0  0  0  0  0
    1.4216   -1.7070    0.5474 C   0  0  0  0  0  0  0  0  0  0  0  0
   -2.9374   -2.5330    2.0940 C   0  0  0  0  0  0  0  0  0  0  0  0
   -2.5625   -0.3103    0.7880 C   0  0  0  0  0  0  0  0  0  0  0  0
   -0.9064   -1.5234   -2.2644 C   0  0  0  0  0  0  0  0  0  0  0  0
    3.6002   -1.0165   -0.4406 C   0  0  0  0  0  0  0  0  0  0  0  0
    1.7457   -0.8066   -2.9455 C   0  0  0  0  0  0  0  0  0  0  0  0
   -0.5780   -1.1434   -3.5709 C   0  0  0  0  0  0  0  0  0  0  0  0
    0.7284   -0.7908   -3.9039 C   0  0  0  0  0  0  0  0  0  0  0  0
   -1.8075    0.8126    1.1264 C   0  0  0  0  0  0  0  0  0  0  0  0
   -3.7299   -0.1657    0.0381 C   0  0  0  0  0  0  0  0  0  0  0  0
   -4.1422    1.1017   -0.3732 C   0  0  0  0  0  0  0  0  0  0  0  0
   -2.2199    2.0801    0.7151 C   0  0  0  0  0  0  0  0  0  0  0  0
   -3.3872    2.2247   -0.0346 C   0  0  0  0  0  0  0  0  0  0  0  0
    5.0476    0.6863    0.3918 C   0  0  0  0  0  0  0  0  0  0  0  0
    6.1217   -0.0814   -0.0583 C   0  0  0  0  0  0  0  0  0  0  0  0
    5.2799    1.9074    1.0246 C   0  0  0  0  0  0  0  0  0  0  0  0
   -5.1556    1.1611   -2.5238 C   0  0  0  0  0  0  0  0  0  0  0  0
   -0.2948    2.9339    1.8200 C   0  0  0  0  0  0  0  0  0  0  0  0
   -4.6534    4.1801    0.4436 C   0  0  0  0  0  0  0  0  0  0  0  0
    7.4282    0.3720    0.1243 C   0  0  0  0  0  0  0  0  0  0  0  0
    6.5863    2.3610    1.2071 C   0  0  0  0  0  0  0  0  0  0  0  0
    7.6605    1.5932    0.7570 C   0  0  0  0  0  0  0  0  0  0  0  0
   -0.8570   -4.4730    0.9366 H   0  0  0  0  0  0  0  0  0  0  0  0
   -0.1300   -3.6940    2.3879 H   0  0  0  0  0  0  0  0  0  0  0  0
    1.8625   -1.8460    1.5262 H   0  0  0  0  0  0  0  0  0  0  0  0
   -2.5097   -4.4606    2.8651 H   0  0  0  0  0  0  0  0  0  0  0  0
   -1.9290   -1.8019   -2.0277 H   0  0  0  0  0  0  0  0  0  0  0  0
    4.0097   -1.0039   -1.4547 H   0  0  0  0  0  0  0  0  0  0  0  0
    4.0451   -1.8302    0.1459 H   0  0  0  0  0  0  0  0  0  0  0  0
    2.7561   -0.5248   -3.2200 H   0  0  0  0  0  0  0  0  0  0  0  0
   -1.3520   -1.1246   -4.3336 H   0  0  0  0  0  0  0  0  0  0  0  0
    0.9609   -0.4978   -4.9246 H   0  0  0  0  0  0  0  0  0  0  0  0
   -0.9129    0.6458    1.7177 H   0  0  0  0  0  0  0  0  0  0  0  0
   -4.3239   -1.0356   -0.2338 H   0  0  0  0  0  0  0  0  0  0  0  0
    6.0133   -1.0394   -0.5553 H   0  0  0  0  0  0  0  0  0  0  0  0
    4.4470    2.5094    1.3773 H   0  0  0  0  0  0  0  0  0  0  0  0
   -6.1495    1.2791   -2.9641 H   0  0  0  0  0  0  0  0  0  0  0  0
   -4.7515    0.1896   -2.8261 H   0  0  0  0  0  0  0  0  0  0  0  0
   -4.5119    1.9664   -2.8914 H   0  0  0  0  0  0  0  0  0  0  0  0
    0.1752    3.9076    1.9939 H   0  0  0  0  0  0  0  0  0  0  0  0
    0.4316    2.3255    1.2699 H   0  0  0  0  0  0  0  0  0  0  0  0
   -0.5305    2.5157    2.8045 H   0  0  0  0  0  0  0  0  0  0  0  0
   -5.5891    3.6330    0.5956 H   0  0  0  0  0  0  0  0  0  0  0  0
   -4.1621    4.3578    1.4054 H   0  0  0  0  0  0  0  0  0  0  0  0
   -4.8842    5.1458   -0.0142 H   0  0  0  0  0  0  0  0  0  0  0  0
    8.2653   -0.2253   -0.2252 H   0  0  0  0  0  0  0  0  0  0  0  0
    6.7672    3.3118    1.6998 H   0  0  0  0  0  0  0  0  0  0  0  0
    8.6777    1.9462    0.8994 H   0  0  0  0  0  0  0  0  0  0  0  0
  1 18  1  0  0  0  0
  1 27  1  0  0  0  0
  2 15  2  0  0  0  0
  3 24  1  0  0  0  0
  3 30  1  0  0  0  0
  4 25  1  0  0  0  0
  4 31  1  0  0  0  0
  5 26  1  0  0  0  0
  5 32  1  0  0  0  0
  6 13  1  0  0  0  0
  6 14  1  0  0  0  0
  6 18  1  0  0  0  0
  7 11  1  0  0  0  0
  7 15  1  0  0  0  0
  7 39  1  0  0  0  0
  8  9  1  0  0  0  0
  8 11  1  0  0  0  0
  8 12  2  0  0  0  0
  9 10  1  0  0  0  0
  9 14  2  0  0  0  0
 10 13  1  0  0  0  0
 10 17  2  0  0  0  0
 11 36  1  0  0  0  0
 11 37  1  0  0  0  0
 12 15  1  0  0  0  0
 12 16  1  0  0  0  0
 13 19  2  0  0  0  0
 14 38  1  0  0  0  0
 16 22  2  0  0  0  0
 16 23  1  0  0  0  0
 17 20  1  0  0  0  0
 17 40  1  0  0  0  0
 18 41  1  0  0  0  0
 18 42  1  0  0  0  0
 19 21  1  0  0  0  0
 19 43  1  0  0  0  0
 20 21  2  0  0  0  0
 20 44  1  0  0  0  0
 21 45  1  0  0  0  0
 22 25  1  0  0  0  0
 22 46  1  0  0  0  0
 23 24  2  0  0  0  0
 23 47  1  0  0  0  0
 24 26  1  0  0  0  0
 25 26  2  0  0  0  0
 27 28  2  0  0  0  0
 27 29  1  0  0  0  0
 28 33  1  0  0  0  0
 28 48  1  0  0  0  0
 29 34  2  0  0  0  0
 29 49  1  0  0  0  0
 30 50  1  0  0  0  0
 30 51  1  0  0  0  0
 30 52  1  0  0  0  0
 31 53  1  0  0  0  0
 31 54  1  0  0  0  0
 31 55  1  0  0  0  0
 32 56  1  0  0  0  0
 32 57  1  0  0  0  0
 32 58  1  0  0  0  0
 33 35  2  0  0  0  0
 33 59  1  0  0  0  0
 34 35  1  0  0  0  0
 34 60  1  0  0  0  0
 35 61  1  0  0  0  0
M  END
> <PUBCHEM_COMPOUND_CID>
24894997

> <PUBCHEM_CONFORMER_RMSD>
1

> <PUBCHEM_CONFORMER_DIVERSEORDER>
2
71
21
80
93
57
45
104
68
98
18
27
38
5
49
64
33
29
16
6
17
105
73
19
107
53
44
48
51
50
32
35
78
84
47
89
28
67
66
60
77
41
8
34
91
76
99
72
103
36
96
43
95
90
22
62
61
106
30
4
85
3
59
94
74
1
101
83
58
65
13
39
102
37
24
15
86
92
82
31
46
79
69
9
100
81
42
70
63
87
56
12
54
14
7
75
23
25
10
11
97
88
20
52
55
26
40

> <PUBCHEM_MMFF94_PARTIAL_CHARGES>
47
1 -0.36
11 0.44
12 -0.01
13 -0.15
14 -0.3
15 0.62
16 0.03
17 -0.15
18 0.54
19 -0.15
2 -0.57
20 -0.15
21 -0.15
22 -0.15
23 -0.15
24 0.08
25 0.08
26 0.08
27 0.08
28 -0.15
29 -0.15
3 -0.36
30 0.28
31 0.28
32 0.28
33 -0.15
34 -0.15
35 -0.15
38 0.15
39 0.37
4 -0.36
40 0.15
43 0.15
44 0.15
45 0.15
46 0.15
47 0.15
48 0.15
49 0.15
5 -0.36
59 0.15
6 0.05
60 0.15
61 0.15
7 -0.73
8 -0.09
9 -0.05

> <PUBCHEM_EFFECTIVE_ROTOR_COUNT>
8.4

> <PUBCHEM_PHARMACOPHORE_FEATURES>
12
1 1 acceptor
1 2 acceptor
1 3 acceptor
1 4 acceptor
1 5 acceptor
1 6 cation
1 7 donor
5 6 9 10 13 14 rings
5 7 8 11 12 15 rings
6 10 13 17 19 20 21 rings
6 16 22 23 24 25 26 rings
6 27 28 29 33 34 35 rings

> <PUBCHEM_HEAVY_ATOM_COUNT>
35

> <PUBCHEM_ATOM_DEF_STEREO_COUNT>
0

> <PUBCHEM_ATOM_UDEF_STEREO_COUNT>
0

> <PUBCHEM_BOND_DEF_STEREO_COUNT>
0

> <PUBCHEM_BOND_UDEF_STEREO_COUNT>
0

> <PUBCHEM_ISOTOPIC_ATOM_COUNT>
0

> <PUBCHEM_COMPONENT_COUNT>
1

> <PUBCHEM_CACTVS_TAUTO_COUNT>
2

> <PUBCHEM_CONFORMER_ID>
017BDE1500000002

> <PUBCHEM_MMFF94_ENERGY>
128.6502

> <PUBCHEM_FEATURE_SELFOVERLAP>
61

> <PUBCHEM_SHAPE_FINGERPRINT>
10032420 55 18195500667859322081
10290309 65 18409741646597810402
10675989 125 17617094707477116617
11445158 3 16770432653212479442
11763715 3 17472428020241724270
12128747 34 18338529543237820170
12539745 222 17677325147424513050
13009979 54 17170977021382281626
13583140 156 18271815635634645498
13726171 33 17987514798403587881
13911987 19 16988846081415458562
13965767 371 17315076554164751611
14068700 675 17170680161859194419
15513586 35 17124794316728016440
15950262 2 18057884637122607941
17492 54 17773856693269882781
17980427 26 18120357766510072822
20587220 17 17101963662220463565
20642791 105 17676497189547063539
21033648 29 17604430665770610301
2132832 1 17242746526167307175
22122407 14 18271235110779939972
22956985 138 16821660136922737338
244849 19 18270139932548131406
27425 322 17911243819751641477
2838139 119 18201714025315922708
376196 1 18126564513885150372
4366758 6 17676475122020524927
44802255 64 17703509995665907710
4938544 92 17895190047799990350
57527358 35 18127120880324244247
5951187 136 17480303362090174365
6036956 94 18270682103038759360
7288768 16 18335133168334182014
86090 222 15407183186665478447
9981440 41 18334020453919312931

> <PUBCHEM_SHAPE_MULTIPOLES>
680.97
14.23
4.44
3.08
29.37
2.33
-2.73
12.88
2.5
-4.88
2.49
-2.4
-2.69
3.49

> <PUBCHEM_SHAPE_SELFOVERLAP>
1505.599

> <PUBCHEM_SHAPE_VOLUME>
368.8

> <PUBCHEM_COORDINATE_TYPE>
2
5
10

$$$$
