10907042
  -OEChem-10052115153D

 63 67  0     0  0  0  0  0  0999 V2000
    1.8429    0.0665   -2.0427 O   0  0  0  0  0  0  0  0  0  0  0  0
   -6.3556    2.6223   -0.3716 O   0  0  0  0  0  0  0  0  0  0  0  0
   -8.6574    1.2126    0.2886 O   0  0  0  0  0  0  0  0  0  0  0  0
    7.2264    0.0074    1.5937 O   0  0  0  0  0  0  0  0  0  0  0  0
   -2.6002   -0.8072   -0.3003 N   0  0  0  0  0  0  0  0  0  0  0  0
   -0.1160    0.4252   -0.8702 N   0  0  0  0  0  0  0  0  0  0  0  0
   -3.7478   -2.8045    0.2893 N   0  0  0  0  0  0  0  0  0  0  0  0
    1.9672    1.0017    0.0760 N   0  0  0  0  0  0  0  0  0  0  0  0
   -6.1258   -2.8022    0.6795 N   0  0  0  0  0  0  0  0  0  0  0  0
   -1.8077   -0.2441    0.8025 C   0  0  0  0  0  0  0  0  0  0  0  0
   -1.8392   -1.2317   -1.4810 C   0  0  0  0  0  0  0  0  0  0  0  0
   -0.8882    0.8696    0.2976 C   0  0  0  0  0  0  0  0  0  0  0  0
   -0.9411   -0.0949   -1.9602 C   0  0  0  0  0  0  0  0  0  0  0  0
   -3.7925   -1.4626    0.0270 C   0  0  0  0  0  0  0  0  0  0  0  0
    1.2868    0.4626   -1.0151 C   0  0  0  0  0  0  0  0  0  0  0  0
   -5.0192   -0.7585    0.0869 C   0  0  0  0  0  0  0  0  0  0  0  0
   -6.1746   -1.4833    0.4223 C   0  0  0  0  0  0  0  0  0  0  0  0
   -5.0822    0.6204   -0.1798 C   0  0  0  0  0  0  0  0  0  0  0  0
   -7.3817   -0.7909    0.4814 C   0  0  0  0  0  0  0  0  0  0  0  0
   -6.3019    1.2869   -0.1135 C   0  0  0  0  0  0  0  0  0  0  0  0
   -4.9154   -3.3912    0.5985 C   0  0  0  0  0  0  0  0  0  0  0  0
   -7.4527    0.5802    0.2175 C   0  0  0  0  0  0  0  0  0  0  0  0
    3.3072    0.7487    0.4622 C   0  0  0  0  0  0  0  0  0  0  0  0
    4.0597   -0.1993   -0.2265 C   0  0  0  0  0  0  0  0  0  0  0  0
    3.8647    1.4494    1.5287 C   0  0  0  0  0  0  0  0  0  0  0  0
    5.3784   -0.4483    0.1539 C   0  0  0  0  0  0  0  0  0  0  0  0
    5.1834    1.2004    1.9090 C   0  0  0  0  0  0  0  0  0  0  0  0
    5.9402    0.2515    1.2216 C   0  0  0  0  0  0  0  0  0  0  0  0
   -6.1784    3.5049    0.7352 C   0  0  0  0  0  0  0  0  0  0  0  0
   -9.4324    1.2665   -0.9073 C   0  0  0  0  0  0  0  0  0  0  0  0
    8.1796   -0.0846    0.5934 C   0  0  0  0  0  0  0  0  0  0  0  0
    8.1828    0.8542   -0.4225 C   0  0  0  0  0  0  0  0  0  0  0  0
    9.1032   -1.1132    0.6353 C   0  0  0  0  0  0  0  0  0  0  0  0
    9.1423    0.7610   -1.4308 C   0  0  0  0  0  0  0  0  0  0  0  0
   10.0627   -1.2063   -0.3728 C   0  0  0  0  0  0  0  0  0  0  0  0
   10.0823   -0.2692   -1.4058 C   0  0  0  0  0  0  0  0  0  0  0  0
   -1.2100   -1.0448    1.2560 H   0  0  0  0  0  0  0  0  0  0  0  0
   -2.4594    0.1644    1.5844 H   0  0  0  0  0  0  0  0  0  0  0  0
   -2.5187   -1.5155   -2.2935 H   0  0  0  0  0  0  0  0  0  0  0  0
   -1.2346   -2.1108   -1.2261 H   0  0  0  0  0  0  0  0  0  0  0  0
   -0.2583    1.1955    1.1253 H   0  0  0  0  0  0  0  0  0  0  0  0
   -1.4816    1.7334   -0.0255 H   0  0  0  0  0  0  0  0  0  0  0  0
   -1.5501    0.7409   -2.3262 H   0  0  0  0  0  0  0  0  0  0  0  0
   -0.3254   -0.4396   -2.7965 H   0  0  0  0  0  0  0  0  0  0  0  0
   -4.1946    1.1898   -0.4447 H   0  0  0  0  0  0  0  0  0  0  0  0
    1.4831    1.6770    0.6572 H   0  0  0  0  0  0  0  0  0  0  0  0
   -8.2933   -1.3278    0.7400 H   0  0  0  0  0  0  0  0  0  0  0  0
   -4.8828   -4.4536    0.8068 H   0  0  0  0  0  0  0  0  0  0  0  0
    3.6675   -0.8020   -1.0363 H   0  0  0  0  0  0  0  0  0  0  0  0
    3.2855    2.1912    2.0723 H   0  0  0  0  0  0  0  0  0  0  0  0
    5.9349   -1.2149   -0.3792 H   0  0  0  0  0  0  0  0  0  0  0  0
    5.6158    1.7487    2.7414 H   0  0  0  0  0  0  0  0  0  0  0  0
   -5.1892    3.3644    1.1826 H   0  0  0  0  0  0  0  0  0  0  0  0
   -6.2542    4.5325    0.3694 H   0  0  0  0  0  0  0  0  0  0  0  0
   -6.9576    3.3421    1.4865 H   0  0  0  0  0  0  0  0  0  0  0  0
   -8.8910    1.8018   -1.6938 H   0  0  0  0  0  0  0  0  0  0  0  0
  -10.3586    1.8059   -0.6914 H   0  0  0  0  0  0  0  0  0  0  0  0
   -9.6859    0.2569   -1.2458 H   0  0  0  0  0  0  0  0  0  0  0  0
    7.4770    1.6792   -0.4517 H   0  0  0  0  0  0  0  0  0  0  0  0
    9.0888   -1.8437    1.4386 H   0  0  0  0  0  0  0  0  0  0  0  0
    9.1610    1.4937   -2.2324 H   0  0  0  0  0  0  0  0  0  0  0  0
   10.7948   -2.0084   -0.3533 H   0  0  0  0  0  0  0  0  0  0  0  0
   10.8301   -0.3411   -2.1900 H   0  0  0  0  0  0  0  0  0  0  0  0
  1 15  2  0  0  0  0
  2 20  1  0  0  0  0
  2 29  1  0  0  0  0
  3 22  1  0  0  0  0
  3 30  1  0  0  0  0
  4 28  1  0  0  0  0
  4 31  1  0  0  0  0
  5 10  1  0  0  0  0
  5 11  1  0  0  0  0
  5 14  1  0  0  0  0
  6 12  1  0  0  0  0
  6 13  1  0  0  0  0
  6 15  1  0  0  0  0
  7 14  2  0  0  0  0
  7 21  1  0  0  0  0
  8 15  1  0  0  0  0
  8 23  1  0  0  0  0
  8 46  1  0  0  0  0
  9 17  1  0  0  0  0
  9 21  2  0  0  0  0
 10 12  1  0  0  0  0
 10 37  1  0  0  0  0
 10 38  1  0  0  0  0
 11 13  1  0  0  0  0
 11 39  1  0  0  0  0
 11 40  1  0  0  0  0
 12 41  1  0  0  0  0
 12 42  1  0  0  0  0
 13 43  1  0  0  0  0
 13 44  1  0  0  0  0
 14 16  1  0  0  0  0
 16 17  1  0  0  0  0
 16 18  2  0  0  0  0
 17 19  2  0  0  0  0
 18 20  1  0  0  0  0
 18 45  1  0  0  0  0
 19 22  1  0  0  0  0
 19 47  1  0  0  0  0
 20 22  2  0  0  0  0
 21 48  1  0  0  0  0
 23 24  2  0  0  0  0
 23 25  1  0  0  0  0
 24 26  1  0  0  0  0
 24 49  1  0  0  0  0
 25 27  2  0  0  0  0
 25 50  1  0  0  0  0
 26 28  2  0  0  0  0
 26 51  1  0  0  0  0
 27 28  1  0  0  0  0
 27 52  1  0  0  0  0
 29 53  1  0  0  0  0
 29 54  1  0  0  0  0
 29 55  1  0  0  0  0
 30 56  1  0  0  0  0
 30 57  1  0  0  0  0
 30 58  1  0  0  0  0
 31 32  2  0  0  0  0
 31 33  1  0  0  0  0
 32 34  1  0  0  0  0
 32 59  1  0  0  0  0
 33 35  2  0  0  0  0
 33 60  1  0  0  0  0
 34 36  2  0  0  0  0
 34 61  1  0  0  0  0
 35 36  1  0  0  0  0
 35 62  1  0  0  0  0
 36 63  1  0  0  0  0
M  END
> <PUBCHEM_COMPOUND_CID>
10907042

> <PUBCHEM_CONFORMER_RMSD>
1

> <PUBCHEM_CONFORMER_DIVERSEORDER>
1
131
170
49
93
99
133
24
157
175
34
140
132
159
36
105
113
22
192
184
41
163
44
46
141
167
13
149
91
185
189
130
27
153
121
86
128
28
70
139
190
39
51
148
19
183
171
142
69
82
76
123
96
12
162
33
127
186
63
81
124
45
58
187
182
104
30
55
98
137
150
78
77
17
172
61
95
155
188
26
29
165
109
85
174
64
88
23
176
89
21
102
47
118
79
116
160
38
54
16
114
84
152
134
31
164
65
151
181
7
112
35
179
18
178
100
108
11
57
191
173
87
5
180
117
37
20
101
67
3
103
10
56
62
119
9
48
72
68
97
83
25
135
73
43
2
166
161
8
145
158
120
156
71
125
32
154
15
66
94
110
50
169
4
177
42
168
6
146
52
75
80
126
122
107
14
129
60
40
53
106
90
144
74
92
138
59
143
115
147
136
111

> <PUBCHEM_MMFF94_PARTIAL_CHARGES>
48
1 -0.57
10 0.37
11 0.37
12 0.3
13 0.3
14 0.41
15 0.69
17 0.31
18 -0.15
19 -0.15
2 -0.36
20 0.08
21 0.47
22 0.08
23 0.12
24 -0.15
25 -0.15
26 -0.15
27 -0.15
28 0.08
29 0.28
3 -0.36
30 0.28
31 0.08
32 -0.15
33 -0.15
34 -0.15
35 -0.15
36 -0.15
4 -0.17
45 0.15
46 0.37
47 0.15
48 0.15
49 0.15
5 -0.84
50 0.15
51 0.15
52 0.15
59 0.15
6 -0.66
60 0.15
61 0.15
62 0.15
63 0.15
7 -0.62
8 -0.55
9 -0.62

> <PUBCHEM_EFFECTIVE_ROTOR_COUNT>
9.2

> <PUBCHEM_PHARMACOPHORE_FEATURES>
12
1 1 acceptor
1 2 acceptor
1 3 acceptor
1 4 acceptor
1 8 donor
3 5 7 14 cation
3 7 9 21 cation
6 16 17 18 19 20 22 rings
6 23 24 25 26 27 28 rings
6 31 32 33 34 35 36 rings
6 5 6 10 11 12 13 rings
6 7 9 14 16 17 21 rings

> <PUBCHEM_HEAVY_ATOM_COUNT>
36

> <PUBCHEM_ATOM_DEF_STEREO_COUNT>
0

> <PUBCHEM_ATOM_UDEF_STEREO_COUNT>
0

> <PUBCHEM_BOND_DEF_STEREO_COUNT>
0

> <PUBCHEM_BOND_UDEF_STEREO_COUNT>
0

> <PUBCHEM_ISOTOPIC_ATOM_COUNT>
0

> <PUBCHEM_COMPONENT_COUNT>
1

> <PUBCHEM_CACTVS_TAUTO_COUNT>
2

> <PUBCHEM_CONFORMER_ID>
00A66DA200000001

> <PUBCHEM_MMFF94_ENERGY>
158.0564

> <PUBCHEM_FEATURE_SELFOVERLAP>
61.061

> <PUBCHEM_SHAPE_FINGERPRINT>
10076449 9 13045944603436645951
100830 39 18410854339859863137
10299344 5 17822008722861105514
10533779 47 16988298542169511030
10580692 12 18335139778726856515
10666366 153 17989490715182090416
10674148 151 18334852827925001608
11103572 155 18260824857115826658
11443803 9 12463569573887855364
12013929 2 18342738485984443496
12133447 93 18410582760603113158
12144603 126 17821450158100851020
12539745 222 18411422839079199507
12539747 363 17458343052608814420
12841400 136 17418375813523309984
13811026 1 17274824640790153720
14117953 113 17346600785626663604
14675019 173 18343863342779463656
15021287 119 16732703853051958221
15183329 4 15140950777445633786
15289351 153 17418094274617857298
15301273 46 18202283611420882732
15392192 29 17023190443611031346
15510794 2 18202567275997880678
15980000 95 16950284009912698332
18335252 98 10953456314833748633
18365409 1 15140972802940326882
19611394 137 18202001057479603232
19841028 212 18335981949200806194
21403212 168 16200432468905552116
21591340 7 13614520758163242884
21772524 286 18263645057096763916
21792938 703 15937544838724733163
21792961 116 17561087973760435832
22164985 6 14273454795534910850
23522609 53 17459490933878495020
335507 130 15791730806774281158
3504750 166 18267860773982648399
3525247 94 14117798011884499236
3552219 110 16805322176445300900
397638 26 17774718753230600382
397638 5 14477244856111535986
4353968 344 18130780197298462719
439807 62 18412545385007155470
45270241 37 18411425047367752972
4625314 4 18409732893923179380
5028188 123 18260831544558689126
5219985 9 17022899064845723460
5381727 24 16917062283496133023
6009941 240 18411417332651687539
6081469 158 17275386495832830856
6691757 9 18408608063827281579
9663363 56 17489867130305438256
9937071 3 17989207016024640286

> <PUBCHEM_SHAPE_MULTIPOLES>
692.48
36.85
2.49
1.45
43.06
0.42
0.24
-2.22
1.06
-7.18
-0.68
2.16
-0.17
1.23

> <PUBCHEM_SHAPE_SELFOVERLAP>
1511.779

> <PUBCHEM_SHAPE_VOLUME>
372.4

> <PUBCHEM_COORDINATE_TYPE>
2
5
10

$$$$
