49830893
  -OEChem-10062121543D

 48 52  0     0  0  0  0  0  0999 V2000
    2.3428    2.4445    0.1505 O   0  0  0  0  0  0  0  0  0  0  0  0
   -2.3718    0.8656    1.6491 O   0  0  0  0  0  0  0  0  0  0  0  0
    3.1529    0.3288    0.0847 N   0  0  0  0  0  0  0  0  0  0  0  0
   -3.7949    0.5434   -0.2040 N   0  0  0  0  0  0  0  0  0  0  0  0
    4.1864   -1.6524    0.0685 N   0  0  0  0  0  0  0  0  0  0  0  0
   -3.5582    0.6209   -1.5533 N   0  0  0  0  0  0  0  0  0  0  0  0
    1.5715   -4.1740   -0.5956 N   0  0  0  0  0  0  0  0  0  0  0  0
    0.7783    0.6453   -0.2767 C   0  0  0  0  0  0  0  0  0  0  0  0
    3.0234   -1.0441   -0.0654 C   0  0  0  0  0  0  0  0  0  0  0  0
    4.4957    0.5841    0.3295 C   0  0  0  0  0  0  0  0  0  0  0  0
    0.6519   -0.8091   -0.4331 C   0  0  0  0  0  0  0  0  0  0  0  0
    2.1114    1.2557    0.0005 C   0  0  0  0  0  0  0  0  0  0  0  0
   -1.5882    1.1442   -0.6204 C   0  0  0  0  0  0  0  0  0  0  0  0
    1.7405   -1.6050   -0.3285 C   0  0  0  0  0  0  0  0  0  0  0  0
   -0.2343    1.5250   -0.3615 C   0  0  0  0  0  0  0  0  0  0  0  0
    5.1042   -0.6680    0.3114 C   0  0  0  0  0  0  0  0  0  0  0  0
   -2.2588    1.0024   -1.7753 C   0  0  0  0  0  0  0  0  0  0  0  0
   -2.5992    0.8451    0.4502 C   0  0  0  0  0  0  0  0  0  0  0  0
    5.2282    1.7573    0.5610 C   0  0  0  0  0  0  0  0  0  0  0  0
   -0.7349   -1.3508   -0.7116 C   0  0  0  0  0  0  0  0  0  0  0  0
   -5.0107    0.1320    0.3036 C   0  0  0  0  0  0  0  0  0  0  0  0
    6.4890   -0.7773    0.5282 C   0  0  0  0  0  0  0  0  0  0  0  0
   -1.7814    1.2256   -3.1676 C   0  0  0  0  0  0  0  0  0  0  0  0
    6.6054    1.6326    0.7756 C   0  0  0  0  0  0  0  0  0  0  0  0
    7.2280    0.3863    0.7596 C   0  0  0  0  0  0  0  0  0  0  0  0
    1.6473   -3.0226   -0.4760 C   0  0  0  0  0  0  0  0  0  0  0  0
   -5.1703   -0.0388    1.6786 C   0  0  0  0  0  0  0  0  0  0  0  0
   -6.0795   -0.1130   -0.5584 C   0  0  0  0  0  0  0  0  0  0  0  0
   -6.3990   -0.4549    2.1919 C   0  0  0  0  0  0  0  0  0  0  0  0
   -7.3081   -0.5290   -0.0454 C   0  0  0  0  0  0  0  0  0  0  0  0
   -7.4677   -0.7000    1.3298 C   0  0  0  0  0  0  0  0  0  0  0  0
   -0.0855    2.5903   -0.2065 H   0  0  0  0  0  0  0  0  0  0  0  0
   -4.2768    0.8914   -2.2118 H   0  0  0  0  0  0  0  0  0  0  0  0
    4.7633    2.7362    0.5773 H   0  0  0  0  0  0  0  0  0  0  0  0
   -0.7135   -2.4468   -0.7734 H   0  0  0  0  0  0  0  0  0  0  0  0
   -1.0939   -1.0911   -1.7051 H   0  0  0  0  0  0  0  0  0  0  0  0
   -1.4252   -1.2055    0.1163 H   0  0  0  0  0  0  0  0  0  0  0  0
    6.9798   -1.7455    0.5173 H   0  0  0  0  0  0  0  0  0  0  0  0
   -2.3655    2.0166   -3.6489 H   0  0  0  0  0  0  0  0  0  0  0  0
   -0.7284    1.5224   -3.1976 H   0  0  0  0  0  0  0  0  0  0  0  0
   -1.8877    0.3108   -3.7596 H   0  0  0  0  0  0  0  0  0  0  0  0
    7.1988    2.5252    0.9577 H   0  0  0  0  0  0  0  0  0  0  0  0
    8.2992    0.3169    0.9289 H   0  0  0  0  0  0  0  0  0  0  0  0
   -4.3787    0.1322    2.3970 H   0  0  0  0  0  0  0  0  0  0  0  0
   -6.0074    0.0006   -1.6354 H   0  0  0  0  0  0  0  0  0  0  0  0
   -6.5241   -0.5890    3.2625 H   0  0  0  0  0  0  0  0  0  0  0  0
   -8.1406   -0.7210   -0.7160 H   0  0  0  0  0  0  0  0  0  0  0  0
   -8.4242   -1.0243    1.7292 H   0  0  0  0  0  0  0  0  0  0  0  0
  1 12  2  0  0  0  0
  2 18  2  0  0  0  0
  3  9  1  0  0  0  0
  3 10  1  0  0  0  0
  3 12  1  0  0  0  0
  4  6  1  0  0  0  0
  4 18  1  0  0  0  0
  4 21  1  0  0  0  0
  5  9  2  0  0  0  0
  5 16  1  0  0  0  0
  6 17  1  0  0  0  0
  6 33  1  0  0  0  0
  7 26  3  0  0  0  0
  8 11  1  0  0  0  0
  8 12  1  0  0  0  0
  8 15  2  3  0  0  0
  9 14  1  0  0  0  0
 10 16  1  0  0  0  0
 10 19  2  0  0  0  0
 11 14  2  0  0  0  0
 11 20  1  0  0  0  0
 13 15  1  0  0  0  0
 13 17  2  0  0  0  0
 13 18  1  0  0  0  0
 14 26  1  0  0  0  0
 15 32  1  0  0  0  0
 16 22  2  0  0  0  0
 17 23  1  0  0  0  0
 19 24  1  0  0  0  0
 19 34  1  0  0  0  0
 20 35  1  0  0  0  0
 20 36  1  0  0  0  0
 20 37  1  0  0  0  0
 21 27  2  0  0  0  0
 21 28  1  0  0  0  0
 22 25  1  0  0  0  0
 22 38  1  0  0  0  0
 23 39  1  0  0  0  0
 23 40  1  0  0  0  0
 23 41  1  0  0  0  0
 24 25  2  0  0  0  0
 24 42  1  0  0  0  0
 25 43  1  0  0  0  0
 27 29  1  0  0  0  0
 27 44  1  0  0  0  0
 28 30  2  0  0  0  0
 28 45  1  0  0  0  0
 29 31  2  0  0  0  0
 29 46  1  0  0  0  0
 30 31  1  0  0  0  0
 30 47  1  0  0  0  0
 31 48  1  0  0  0  0
M  END
> <PUBCHEM_COMPOUND_CID>
49830893

> <PUBCHEM_CONFORMER_RMSD>
0.6

> <PUBCHEM_CONFORMER_DIVERSEORDER>
2
1

> <PUBCHEM_MMFF94_PARTIAL_CHARGES>
42
1 -0.57
10 -0.15
11 -0.14
12 0.56
13 0.01
14 0.11
15 -0.15
16 0.23
17 -0.04
18 0.62
19 -0.15
2 -0.57
20 0.14
21 0.12
22 -0.15
23 0.14
24 -0.15
25 -0.15
26 0.49
27 -0.15
28 -0.15
29 -0.15
3 0.29
30 -0.15
31 -0.15
32 0.15
33 0.4
34 0.15
38 0.15
4 -0.16
42 0.15
43 0.15
44 0.15
45 0.15
46 0.15
47 0.15
48 0.15
5 -0.57
6 -0.52
7 -0.56
8 0.01
9 0.14

> <PUBCHEM_EFFECTIVE_ROTOR_COUNT>
2

> <PUBCHEM_PHARMACOPHORE_FEATURES>
9
1 1 acceptor
1 2 acceptor
1 6 donor
1 7 acceptor
5 3 5 9 10 16 rings
5 4 6 13 17 18 rings
6 10 16 19 22 24 25 rings
6 21 27 28 29 30 31 rings
6 3 8 9 11 12 14 rings

> <PUBCHEM_HEAVY_ATOM_COUNT>
31

> <PUBCHEM_ATOM_DEF_STEREO_COUNT>
0

> <PUBCHEM_ATOM_UDEF_STEREO_COUNT>
0

> <PUBCHEM_BOND_DEF_STEREO_COUNT>
0

> <PUBCHEM_BOND_UDEF_STEREO_COUNT>
1

> <PUBCHEM_ISOTOPIC_ATOM_COUNT>
0

> <PUBCHEM_COMPONENT_COUNT>
1

> <PUBCHEM_CACTVS_TAUTO_COUNT>
31

> <PUBCHEM_CONFORMER_ID>
02F85BED00000002

> <PUBCHEM_MMFF94_ENERGY>
112.2569

> <PUBCHEM_FEATURE_SELFOVERLAP>
45.886

> <PUBCHEM_SHAPE_FINGERPRINT>
10 15 18041275556581513912
10835480 77 18337103455097122189
11421498 54 17560804269273725490
11456790 92 17988069020993215362
11719270 70 18410292514628294746
11963148 33 18040431105223092275
12035758 1 18336254722177388928
12107698 1 16515683346919537620
12236239 1 17418094312597407233
12596602 18 17489314062127844571
13402501 40 18186805777024545787
13540713 4 18045777897261065335
13782708 43 17822853057149090266
13914758 101 12685083770461703391
14028597 1 17632583716728888354
14294032 229 15626221283080987449
14341114 328 17632581543992250999
14849402 71 17917427700226023128
14856354 85 16630522973370912397
15183329 4 8070032151405407017
15188451 53 15574711400353428154
15510800 12 17677349307037962371
16994733 274 15338538536691986034
19303781 99 17025445663263702963
19315958 150 18341901754121720403
19319366 153 18060134327885791662
19377110 9 17917713470285307331
21033648 29 18189310456324131148
21223535 225 8285936687406515359
21267235 1 18412546475627778644
21521721 280 18272650186265568224
21623969 137 18409167701189707990
21781051 124 18187942681265555682
22149856 69 18337689520284670017
22224240 67 18343300392070947034
22956985 138 17753604638686374570
23559900 14 15792023336844045317
2747138 104 18334304162088788025
3004659 81 14345796080367805041
3009799 131 9295288339728126758
3178227 256 18411420630864765416
335352 9 18342175571450940502
350125 39 18339920532277053900
392239 28 18343028821805662323
4073 2 18188208685632766877
4093350 32 16702028548004912070
4340502 62 18343024397451406934
465052 167 17967533467495031168
5104073 3 18263362482190472809
5758199 1 18060138764723586858
59682541 35 18334858363214887744
59755656 520 17918269882924126630
6009941 240 18187363178640284893
6376802 90 17534330146817387525
6523845 18 18336555950004126006

> <PUBCHEM_SHAPE_MULTIPOLES>
601.32
19.08
2.42
1.65
7.44
2.18
-0.61
-0.03
9.88
-2.9
-0.68
2.76
-0.49
1.64

> <PUBCHEM_SHAPE_SELFOVERLAP>
1360.628

> <PUBCHEM_SHAPE_VOLUME>
314.3

> <PUBCHEM_COORDINATE_TYPE>
2
5
10

$$$$
