49830659
  -OEChem-10052115173D

 60 63  0     0  0  0  0  0  0999 V2000
    1.7017   -2.9285    0.1901 O   0  0  0  0  0  0  0  0  0  0  0  0
   -1.4688    3.5996    0.1270 O   0  0  0  0  0  0  0  0  0  0  0  0
    0.7933    3.8060   -1.5210 O   0  0  0  0  0  0  0  0  0  0  0  0
    3.3805   -1.7415    3.1298 O   0  0  0  0  0  0  0  0  0  0  0  0
    3.9926   -3.3243    1.6106 O   0  0  0  0  0  0  0  0  0  0  0  0
   -2.4928   -0.6524   -0.3597 N   0  0  0  0  0  0  0  0  0  0  0  0
   -3.7412   -1.0547   -0.0672 N   0  0  0  0  0  0  0  0  0  0  0  0
   -1.0533    1.3308   -0.4169 N   0  0  0  0  0  0  0  0  0  0  0  0
   -5.7560    0.0488    0.7264 C   0  0  0  0  0  0  0  0  0  0  0  0
   -4.3423    0.0752    0.3146 C   0  0  0  0  0  0  0  0  0  0  0  0
   -6.6447    0.9723   -0.1755 C   0  0  0  0  0  0  0  0  0  0  0  0
   -5.9442    0.5386    2.2030 C   0  0  0  0  0  0  0  0  0  0  0  0
   -6.4627   -1.3557    0.6785 C   0  0  0  0  0  0  0  0  0  0  0  0
   -3.4845    1.1903    0.2663 C   0  0  0  0  0  0  0  0  0  0  0  0
   -2.2872    0.6836   -0.1765 C   0  0  0  0  0  0  0  0  0  0  0  0
   -1.5537   -1.5856   -0.8025 C   0  0  0  0  0  0  0  0  0  0  0  0
   -0.3814   -1.7942   -0.0758 C   0  0  0  0  0  0  0  0  0  0  0  0
   -1.7872   -2.3090   -1.9722 C   0  0  0  0  0  0  0  0  0  0  0  0
   -0.7738    2.6701   -0.2474 C   0  0  0  0  0  0  0  0  0  0  0  0
    0.5573   -2.7260   -0.5186 C   0  0  0  0  0  0  0  0  0  0  0  0
    1.7685    2.3698    0.1071 C   0  0  0  0  0  0  0  0  0  0  0  0
    2.7295    1.5749   -0.5388 C   0  0  0  0  0  0  0  0  0  0  0  0
    0.6555    2.9897   -0.6067 C   0  0  0  0  0  0  0  0  0  0  0  0
   -0.8484   -3.2406   -2.4152 C   0  0  0  0  0  0  0  0  0  0  0  0
    3.7804    1.0064    0.2196 C   0  0  0  0  0  0  0  0  0  0  0  0
    0.3238   -3.4494   -1.6883 C   0  0  0  0  0  0  0  0  0  0  0  0
    1.8427    2.6006    1.4810 C   0  0  0  0  0  0  0  0  0  0  0  0
    2.6704    1.3320   -1.9207 C   0  0  0  0  0  0  0  0  0  0  0  0
    3.8395    1.2493    1.6015 C   0  0  0  0  0  0  0  0  0  0  0  0
    2.8762    2.0415    2.2268 C   0  0  0  0  0  0  0  0  0  0  0  0
    4.7413    0.2115   -0.4263 C   0  0  0  0  0  0  0  0  0  0  0  0
    3.6337    0.5398   -2.5460 C   0  0  0  0  0  0  0  0  0  0  0  0
    4.6672   -0.0193   -1.8002 C   0  0  0  0  0  0  0  0  0  0  0  0
    1.8758   -2.1549    1.3762 C   0  0  0  0  0  0  0  0  0  0  0  0
    3.1928   -2.4947    2.0170 C   0  0  0  0  0  0  0  0  0  0  0  0
   -7.6952    0.9500    0.1358 H   0  0  0  0  0  0  0  0  0  0  0  0
   -6.3064    2.0138   -0.1278 H   0  0  0  0  0  0  0  0  0  0  0  0
   -6.5929    0.6556   -1.2237 H   0  0  0  0  0  0  0  0  0  0  0  0
   -5.5837    1.5662    2.3268 H   0  0  0  0  0  0  0  0  0  0  0  0
   -6.9979    0.5181    2.5036 H   0  0  0  0  0  0  0  0  0  0  0  0
   -5.3794   -0.0956    2.8963 H   0  0  0  0  0  0  0  0  0  0  0  0
   -5.9532   -2.0707    1.3351 H   0  0  0  0  0  0  0  0  0  0  0  0
   -7.5092   -1.2934    0.9979 H   0  0  0  0  0  0  0  0  0  0  0  0
   -6.4456   -1.7659   -0.3380 H   0  0  0  0  0  0  0  0  0  0  0  0
   -3.7112    2.2156    0.5202 H   0  0  0  0  0  0  0  0  0  0  0  0
   -0.3092    0.7331   -0.7658 H   0  0  0  0  0  0  0  0  0  0  0  0
   -0.2530   -1.2178    0.8350 H   0  0  0  0  0  0  0  0  0  0  0  0
   -2.6934   -2.1560   -2.5535 H   0  0  0  0  0  0  0  0  0  0  0  0
   -1.0295   -3.8028   -3.3266 H   0  0  0  0  0  0  0  0  0  0  0  0
    1.0517   -4.1761   -2.0386 H   0  0  0  0  0  0  0  0  0  0  0  0
    1.1034    3.2179    1.9855 H   0  0  0  0  0  0  0  0  0  0  0  0
    1.8767    1.7353   -2.5436 H   0  0  0  0  0  0  0  0  0  0  0  0
    4.6395    0.8239    2.2038 H   0  0  0  0  0  0  0  0  0  0  0  0
    2.9339    2.2217    3.2963 H   0  0  0  0  0  0  0  0  0  0  0  0
    5.5567   -0.2372    0.1373 H   0  0  0  0  0  0  0  0  0  0  0  0
    3.5749    0.3565   -3.6149 H   0  0  0  0  0  0  0  0  0  0  0  0
    5.4158   -0.6373   -2.2873 H   0  0  0  0  0  0  0  0  0  0  0  0
    1.0958   -2.4023    2.1062 H   0  0  0  0  0  0  0  0  0  0  0  0
    1.8968   -1.0881    1.1353 H   0  0  0  0  0  0  0  0  0  0  0  0
    4.2361   -1.9402    3.5665 H   0  0  0  0  0  0  0  0  0  0  0  0
  1 20  1  0  0  0  0
  1 34  1  0  0  0  0
  2 19  2  0  0  0  0
  3 23  2  0  0  0  0
  4 35  1  0  0  0  0
  4 60  1  0  0  0  0
  5 35  2  0  0  0  0
  6  7  1  0  0  0  0
  6 15  1  0  0  0  0
  6 16  1  0  0  0  0
  7 10  2  0  0  0  0
  8 15  1  0  0  0  0
  8 19  1  0  0  0  0
  8 46  1  0  0  0  0
  9 10  1  0  0  0  0
  9 11  1  0  0  0  0
  9 12  1  0  0  0  0
  9 13  1  0  0  0  0
 10 14  1  0  0  0  0
 11 36  1  0  0  0  0
 11 37  1  0  0  0  0
 11 38  1  0  0  0  0
 12 39  1  0  0  0  0
 12 40  1  0  0  0  0
 12 41  1  0  0  0  0
 13 42  1  0  0  0  0
 13 43  1  0  0  0  0
 13 44  1  0  0  0  0
 14 15  2  0  0  0  0
 14 45  1  0  0  0  0
 16 17  2  0  0  0  0
 16 18  1  0  0  0  0
 17 20  1  0  0  0  0
 17 47  1  0  0  0  0
 18 24  2  0  0  0  0
 18 48  1  0  0  0  0
 19 23  1  0  0  0  0
 20 26  2  0  0  0  0
 21 22  1  0  0  0  0
 21 23  1  0  0  0  0
 21 27  2  0  0  0  0
 22 25  1  0  0  0  0
 22 28  2  0  0  0  0
 24 26  1  0  0  0  0
 24 49  1  0  0  0  0
 25 29  1  0  0  0  0
 25 31  2  0  0  0  0
 26 50  1  0  0  0  0
 27 30  1  0  0  0  0
 27 51  1  0  0  0  0
 28 32  1  0  0  0  0
 28 52  1  0  0  0  0
 29 30  2  0  0  0  0
 29 53  1  0  0  0  0
 30 54  1  0  0  0  0
 31 33  1  0  0  0  0
 31 55  1  0  0  0  0
 32 33  2  0  0  0  0
 32 56  1  0  0  0  0
 33 57  1  0  0  0  0
 34 35  1  0  0  0  0
 34 58  1  0  0  0  0
 34 59  1  0  0  0  0
M  END
> <PUBCHEM_COMPOUND_CID>
49830659

> <PUBCHEM_CONFORMER_RMSD>
1

> <PUBCHEM_CONFORMER_DIVERSEORDER>
1
57
172
94
123
164
67
201
159
28
145
26
15
163
2
41
45
169
86
136
200
3
35
85
79
40
84
93
78
199
107
17
69
186
46
122
29
39
59
22
47
176
155
52
150
118
142
152
102
149
51
77
98
189
36
137
53
147
174
7
129
100
124
184
114
193
112
179
166
9
181
197
80
75
42
191
19
72
134
25
34
190
177
44
188
82
115
121
70
101
168
128
74
187
182
63
185
195
143
11
160
135
125
130
198
49
126
167
81
91
139
48
109
117
196
32
138
119
73
140
106
99
141
68
38
161
6
96
27
133
162
103
157
194
171
165
56
178
105
60
170
30
65
62
180
92
127
33
83
87
95
54
58
110
43
16
113
89
154
151
153
4
173
192
37
76
24
5
175
156
13
97
55
90
131
23
148
21
116
64
50
146
8
111
108
66
144
20
158
18
202
88
14
183
132
120
31
10
12
61
71
104

> <PUBCHEM_MMFF94_PARTIAL_CHARGES>
44
1 -0.36
10 0.11
14 -0.15
15 -0.09
16 -0.02
17 -0.15
18 -0.15
19 0.63
2 -0.57
20 0.08
21 0.09
23 0.48
24 -0.15
26 -0.15
27 -0.15
28 -0.15
29 -0.15
3 -0.57
30 -0.15
31 -0.15
32 -0.15
33 -0.15
34 0.34
35 0.66
4 -0.65
45 0.15
46 0.37
47 0.15
48 0.15
49 0.15
5 -0.57
50 0.15
51 0.15
52 0.15
53 0.15
54 0.15
55 0.15
56 0.15
57 0.15
6 0.59
60 0.5
7 -0.71
8 -0.49
9 0.18

> <PUBCHEM_EFFECTIVE_ROTOR_COUNT>
9

> <PUBCHEM_PHARMACOPHORE_FEATURES>
13
1 1 acceptor
1 2 acceptor
1 3 acceptor
1 4 acceptor
1 5 acceptor
1 7 acceptor
1 8 donor
3 4 5 35 anion
4 9 11 12 13 hydrophobe
5 6 7 10 14 15 rings
6 16 17 18 20 24 26 rings
6 21 22 25 27 29 30 rings
6 22 25 28 31 32 33 rings

> <PUBCHEM_HEAVY_ATOM_COUNT>
35

> <PUBCHEM_ATOM_DEF_STEREO_COUNT>
0

> <PUBCHEM_ATOM_UDEF_STEREO_COUNT>
0

> <PUBCHEM_BOND_DEF_STEREO_COUNT>
0

> <PUBCHEM_BOND_UDEF_STEREO_COUNT>
0

> <PUBCHEM_ISOTOPIC_ATOM_COUNT>
0

> <PUBCHEM_COMPONENT_COUNT>
1

> <PUBCHEM_CACTVS_TAUTO_COUNT>
4

> <PUBCHEM_CONFORMER_ID>
02F85B0300000001

> <PUBCHEM_MMFF94_ENERGY>
116.8118

> <PUBCHEM_FEATURE_SELFOVERLAP>
66.066

> <PUBCHEM_SHAPE_FINGERPRINT>
10816530 23 16843311548472061184
12156800 1 17127908846421904490
12422481 6 18267575824128871521
13140716 1 18121215643303837489
13402501 40 18130520677381906532
13512321 179 15978951051231931241
14840074 17 18412266138268983009
15274700 259 17897145938096662933
15297060 5 17560532775564094427
15403338 16 17749944449859349995
19315092 285 16371277819038511666
19319366 153 18113906008925102502
1979834 28 18272088262846279739
20465049 17 18338532909948426342
20905425 154 18194126213888952492
23559900 14 17702396236724917900
3298306 158 18409168822867269165
484985 159 14788516322677480266
513532 50 17632574959728355986
57091435 65 18336817620438221874
5776283 40 18124616399305765564

> <PUBCHEM_SHAPE_MULTIPOLES>
675.99
11.8
4.7
2.42
17.98
1.1
0.63
-1.36
3.89
-2.3
-0.64
-2.78
1.06
-1.78

> <PUBCHEM_SHAPE_SELFOVERLAP>
1477.367

> <PUBCHEM_SHAPE_VOLUME>
365

> <PUBCHEM_COORDINATE_TYPE>
2
5
10

$$$$
