44565015
  -OEChem-10062122023D

 38 42  0     0  0  0  0  0  0999 V2000
    3.9894   -1.4957    0.2813 S   0  0  0  0  0  0  0  0  0  0  0  0
   -2.3805   -1.2959    0.1897 N   0  0  0  0  0  0  0  0  0  0  0  0
   -5.9963    1.6534    0.2703 N   0  0  0  0  0  0  0  0  0  0  0  0
    2.4735    0.5465   -0.1472 N   0  0  0  0  0  0  0  0  0  0  0  0
   -2.1149    0.9433   -0.5983 N   0  0  0  0  0  0  0  0  0  0  0  0
   -3.9370    2.5580   -0.5985 N   0  0  0  0  0  0  0  0  0  0  0  0
   -4.2423    0.2746    0.2149 C   0  0  0  0  0  0  0  0  0  0  0  0
    1.3015   -1.5979   -0.0948 C   0  0  0  0  0  0  0  0  0  0  0  0
   -1.0987   -1.8551    0.0068 C   0  0  0  0  0  0  0  0  0  0  0  0
   -2.9087   -0.0162   -0.0687 C   0  0  0  0  0  0  0  0  0  0  0  0
    0.0339   -1.0447    0.0860 C   0  0  0  0  0  0  0  0  0  0  0  0
    2.4739   -0.7591   -0.0128 C   0  0  0  0  0  0  0  0  0  0  0  0
   -4.6738    1.5634   -0.0740 C   0  0  0  0  0  0  0  0  0  0  0  0
    4.7417    0.0548    0.2300 C   0  0  0  0  0  0  0  0  0  0  0  0
    3.7673    1.0281   -0.0104 C   0  0  0  0  0  0  0  0  0  0  0  0
   -5.3549   -0.4234    0.7504 C   0  0  0  0  0  0  0  0  0  0  0  0
    1.4367   -2.9617   -0.3547 C   0  0  0  0  0  0  0  0  0  0  0  0
   -0.9635   -3.2189   -0.2531 C   0  0  0  0  0  0  0  0  0  0  0  0
    0.3043   -3.7722   -0.4337 C   0  0  0  0  0  0  0  0  0  0  0  0
   -6.4210    0.4503    0.7733 C   0  0  0  0  0  0  0  0  0  0  0  0
    6.0969    0.3859    0.3908 C   0  0  0  0  0  0  0  0  0  0  0  0
    4.1657    2.3800   -0.0923 C   0  0  0  0  0  0  0  0  0  0  0  0
   -2.6707    2.1544   -0.8271 C   0  0  0  0  0  0  0  0  0  0  0  0
    6.4644    1.7312    0.3051 C   0  0  0  0  0  0  0  0  0  0  0  0
    5.5131    2.7169    0.0669 C   0  0  0  0  0  0  0  0  0  0  0  0
   -0.0528    0.0104    0.3284 H   0  0  0  0  0  0  0  0  0  0  0  0
   -3.0824   -1.9806    0.4564 H   0  0  0  0  0  0  0  0  0  0  0  0
   -5.3839   -1.4511    1.0856 H   0  0  0  0  0  0  0  0  0  0  0  0
    2.3900   -3.4502   -0.5318 H   0  0  0  0  0  0  0  0  0  0  0  0
   -1.8380   -3.8611   -0.3196 H   0  0  0  0  0  0  0  0  0  0  0  0
   -6.5701    2.4791    0.1693 H   0  0  0  0  0  0  0  0  0  0  0  0
    0.4081   -4.8331   -0.6422 H   0  0  0  0  0  0  0  0  0  0  0  0
   -7.4427    0.3228    1.1021 H   0  0  0  0  0  0  0  0  0  0  0  0
    6.8451   -0.3783    0.5770 H   0  0  0  0  0  0  0  0  0  0  0  0
    3.4308    3.1581   -0.2781 H   0  0  0  0  0  0  0  0  0  0  0  0
   -2.0081    2.9009   -1.2517 H   0  0  0  0  0  0  0  0  0  0  0  0
    7.5081    2.0090    0.4266 H   0  0  0  0  0  0  0  0  0  0  0  0
    5.8175    3.7580    0.0035 H   0  0  0  0  0  0  0  0  0  0  0  0
  1 12  1  0  0  0  0
  1 14  1  0  0  0  0
  2  9  1  0  0  0  0
  2 10  1  0  0  0  0
  2 27  1  0  0  0  0
  3 13  1  0  0  0  0
  3 20  1  0  0  0  0
  3 31  1  0  0  0  0
  4 12  2  0  0  0  0
  4 15  1  0  0  0  0
  5 10  2  0  0  0  0
  5 23  1  0  0  0  0
  6 13  1  0  0  0  0
  6 23  2  0  0  0  0
  7 10  1  0  0  0  0
  7 13  2  0  0  0  0
  7 16  1  0  0  0  0
  8 11  2  0  0  0  0
  8 12  1  0  0  0  0
  8 17  1  0  0  0  0
  9 11  1  0  0  0  0
  9 18  2  0  0  0  0
 11 26  1  0  0  0  0
 14 15  1  0  0  0  0
 14 21  2  0  0  0  0
 15 22  2  0  0  0  0
 16 20  2  0  0  0  0
 16 28  1  0  0  0  0
 17 19  2  0  0  0  0
 17 29  1  0  0  0  0
 18 19  1  0  0  0  0
 18 30  1  0  0  0  0
 19 32  1  0  0  0  0
 20 33  1  0  0  0  0
 21 24  1  0  0  0  0
 21 34  1  0  0  0  0
 22 25  1  0  0  0  0
 22 35  1  0  0  0  0
 23 36  1  0  0  0  0
 24 25  2  0  0  0  0
 24 37  1  0  0  0  0
 25 38  1  0  0  0  0
M  END
> <PUBCHEM_COMPOUND_CID>
44565015

> <PUBCHEM_CONFORMER_RMSD>
0.6

> <PUBCHEM_CONFORMER_DIVERSEORDER>
1
21
17
66
69
14
16
32
37
28
62
71
68
7
30
13
36
18
70
46
29
40
73
65
3
67
22
43
48
20
8
49
54
56
42
19
15
72
58
35
63
55
9
27
34
12
45
64
74
33
41
50
4
26
75
38
57
23
2
59
47
60
44
61
31
11
10
53
24
25
51
52
39
6
5

> <PUBCHEM_MMFF94_PARTIAL_CHARGES>
37
1 -0.08
10 0.41
11 -0.15
12 0.33
13 0.11
14 0.04
15 0.23
16 -0.15
17 -0.15
18 -0.15
19 -0.15
2 -0.6
20 -0.3
21 -0.15
22 -0.15
23 0.47
24 -0.15
25 -0.15
26 0.15
27 0.4
28 0.15
29 0.15
3 0.03
30 0.15
31 0.27
32 0.15
33 0.15
34 0.15
35 0.15
36 0.15
37 0.15
38 0.15
4 -0.57
5 -0.62
6 -0.57
8 0.05
9 0.1

> <PUBCHEM_EFFECTIVE_ROTOR_COUNT>
3

> <PUBCHEM_PHARMACOPHORE_FEATURES>
11
1 2 donor
1 3 cation
1 3 donor
1 4 acceptor
3 2 5 10 cation
3 5 6 23 cation
5 1 4 12 14 15 rings
5 3 7 13 16 20 rings
6 14 15 21 22 24 25 rings
6 5 6 7 10 13 23 rings
6 8 9 11 17 18 19 rings

> <PUBCHEM_HEAVY_ATOM_COUNT>
25

> <PUBCHEM_ATOM_DEF_STEREO_COUNT>
0

> <PUBCHEM_ATOM_UDEF_STEREO_COUNT>
0

> <PUBCHEM_BOND_DEF_STEREO_COUNT>
0

> <PUBCHEM_BOND_UDEF_STEREO_COUNT>
0

> <PUBCHEM_ISOTOPIC_ATOM_COUNT>
0

> <PUBCHEM_COMPONENT_COUNT>
1

> <PUBCHEM_CACTVS_TAUTO_COUNT>
9

> <PUBCHEM_CONFORMER_ID>
02A8021700000001

> <PUBCHEM_MMFF94_ENERGY>
68.3926

> <PUBCHEM_FEATURE_SELFOVERLAP>
56.124

> <PUBCHEM_SHAPE_FINGERPRINT>
10 15 18187086173937883496
10165383 225 18343023306840787969
10411042 1 17691408504166222942
10493431 412 18410574015268989463
10622 236 11526576712700985740
10835480 77 18263358089457482085
11796584 16 12535334675961961983
12107183 9 18336252471952441570
12144603 126 18131910452692078589
12293681 160 17775570848977429842
12769317 202 18271799086449810416
13402501 40 18409449184857021801
13785724 45 17906167353123707218
13911852 28 8502379918492410976
14257110 125 18410574006631575382
14294032 229 18058170707440271919
1454969 45 18340200886858579367
14790565 3 18411983589123083033
15320467 1 18410855468972395308
15419008 145 18115293476983944544
15475509 35 16371561472154803626
15519825 34 16444200883752263803
15961568 22 18187366502274819021
16126227 98 18340771567157196824
16760501 71 18408887355889772384
18608769 82 18341333413583370755
19611394 137 17897459495771712195
20715895 44 18413671314392882216
21033648 29 18199459030315543064
21033650 10 14261365621711002051
21236236 1 18269553995787024183
21315764 268 18261106331775252972
21365058 113 17339861672343243559
21421861 104 17896020115240060426
21756936 100 18270954760710238158
23559900 14 17832703475017845507
245318 6 17896618347411302404
24771750 20 18341067241792005382
25019877 29 18201444726524336159
2838139 119 18410848872033412838
335352 9 18411983551592257230
50009960 94 16955943368676991827
5104073 3 18116441328336177241
5171179 24 17342084150709863499
5219985 13 18341331180031617158
5385378 56 18340771442666364466
59682541 35 18260841419015154697
5969126 39 18054785358984506631
6327066 14 18410570716723706100
636775 72 17764304338845503176
77188 2 17475517175021427062
7808743 9 18339074999119038434
7970288 3 8718827578561092232
9981440 41 18334580156925054435

> <PUBCHEM_SHAPE_MULTIPOLES>
493.43
16.06
3.84
0.74
0.8
2.08
0.01
-14.01
3.29
-1.12
-0.72
0.32
-0.05
0.45

> <PUBCHEM_SHAPE_SELFOVERLAP>
1108.408

> <PUBCHEM_SHAPE_VOLUME>
261.6

> <PUBCHEM_COORDINATE_TYPE>
2
5
10

$$$$
