49830879
  -OEChem-10062121553D

 38 40  0     0  0  0  0  0  0999 V2000
    5.7664    0.8213    1.3593 O   0  0  0  0  0  0  0  0  0  0  0  0
    1.2983    1.2876   -0.5623 N   0  0  0  0  0  0  0  0  0  0  0  0
   -0.4734    2.5970   -0.2829 N   0  0  0  0  0  0  0  0  0  0  0  0
    0.5881   -3.7766   -0.2199 N   0  0  0  0  0  0  0  0  0  0  0  0
    2.6738    0.9194   -0.8062 C   0  0  0  0  0  0  0  0  0  0  0  0
    0.2456    0.4481   -0.3290 C   0  0  0  0  0  0  0  0  0  0  0  0
   -0.8365    1.2793   -0.1597 C   0  0  0  0  0  0  0  0  0  0  0  0
    3.5815    1.0840    0.4146 C   0  0  0  0  0  0  0  0  0  0  0  0
    0.3615   -0.9914   -0.2917 C   0  0  0  0  0  0  0  0  0  0  0  0
    0.8182    2.5672   -0.5250 C   0  0  0  0  0  0  0  0  0  0  0  0
   -2.1818    0.8561    0.1113 C   0  0  0  0  0  0  0  0  0  0  0  0
    5.0084    0.6044    0.1760 C   0  0  0  0  0  0  0  0  0  0  0  0
    0.1954   -1.7355   -1.4546 C   0  0  0  0  0  0  0  0  0  0  0  0
    0.6408   -1.6384    0.9070 C   0  0  0  0  0  0  0  0  0  0  0  0
   -2.4613    0.1167    1.2605 C   0  0  0  0  0  0  0  0  0  0  0  0
   -3.2085    1.1839   -0.7740 C   0  0  0  0  0  0  0  0  0  0  0  0
   -3.7678   -0.2951    1.5244 C   0  0  0  0  0  0  0  0  0  0  0  0
   -4.5149    0.7722   -0.5103 C   0  0  0  0  0  0  0  0  0  0  0  0
    0.3176   -3.1128   -1.3663 C   0  0  0  0  0  0  0  0  0  0  0  0
    0.7431   -3.0202    0.8897 C   0  0  0  0  0  0  0  0  0  0  0  0
   -4.7944    0.0327    0.6390 C   0  0  0  0  0  0  0  0  0  0  0  0
    2.7080   -0.1114   -1.1724 H   0  0  0  0  0  0  0  0  0  0  0  0
    3.0331    1.5530   -1.6266 H   0  0  0  0  0  0  0  0  0  0  0  0
    3.1609    0.5390    1.2699 H   0  0  0  0  0  0  0  0  0  0  0  0
    3.6006    2.1357    0.7291 H   0  0  0  0  0  0  0  0  0  0  0  0
    1.4502    3.4312   -0.6796 H   0  0  0  0  0  0  0  0  0  0  0  0
    5.4735    1.1605   -0.6439 H   0  0  0  0  0  0  0  0  0  0  0  0
    5.0255   -0.4641   -0.0603 H   0  0  0  0  0  0  0  0  0  0  0  0
   -0.0231   -1.2665   -2.4086 H   0  0  0  0  0  0  0  0  0  0  0  0
    0.7811   -1.0926    1.8344 H   0  0  0  0  0  0  0  0  0  0  0  0
   -1.6833   -0.1331    1.9769 H   0  0  0  0  0  0  0  0  0  0  0  0
   -3.0078    1.7584   -1.6752 H   0  0  0  0  0  0  0  0  0  0  0  0
   -3.9865   -0.8668    2.4216 H   0  0  0  0  0  0  0  0  0  0  0  0
   -5.3144    1.0272   -1.1996 H   0  0  0  0  0  0  0  0  0  0  0  0
    0.1971   -3.7385   -2.2445 H   0  0  0  0  0  0  0  0  0  0  0  0
    0.9605   -3.5723    1.7981 H   0  0  0  0  0  0  0  0  0  0  0  0
   -5.8118   -0.2870    0.8448 H   0  0  0  0  0  0  0  0  0  0  0  0
    6.6693    0.5077    1.1804 H   0  0  0  0  0  0  0  0  0  0  0  0
  1 12  1  0  0  0  0
  1 38  1  0  0  0  0
  2  5  1  0  0  0  0
  2  6  1  0  0  0  0
  2 10  1  0  0  0  0
  3  7  1  0  0  0  0
  3 10  2  0  0  0  0
  4 19  2  0  0  0  0
  4 20  1  0  0  0  0
  5  8  1  0  0  0  0
  5 22  1  0  0  0  0
  5 23  1  0  0  0  0
  6  7  2  0  0  0  0
  6  9  1  0  0  0  0
  7 11  1  0  0  0  0
  8 12  1  0  0  0  0
  8 24  1  0  0  0  0
  8 25  1  0  0  0  0
  9 13  2  0  0  0  0
  9 14  1  0  0  0  0
 10 26  1  0  0  0  0
 11 15  2  0  0  0  0
 11 16  1  0  0  0  0
 12 27  1  0  0  0  0
 12 28  1  0  0  0  0
 13 19  1  0  0  0  0
 13 29  1  0  0  0  0
 14 20  2  0  0  0  0
 14 30  1  0  0  0  0
 15 17  1  0  0  0  0
 15 31  1  0  0  0  0
 16 18  2  0  0  0  0
 16 32  1  0  0  0  0
 17 21  2  0  0  0  0
 17 33  1  0  0  0  0
 18 21  1  0  0  0  0
 18 34  1  0  0  0  0
 19 35  1  0  0  0  0
 20 36  1  0  0  0  0
 21 37  1  0  0  0  0
M  END
> <PUBCHEM_COMPOUND_CID>
49830879

> <PUBCHEM_CONFORMER_RMSD>
0.8

> <PUBCHEM_CONFORMER_DIVERSEORDER>
1
10
7
3
4
8
9
5
12
6
2
11

> <PUBCHEM_MMFF94_PARTIAL_CHARGES>
31
1 -0.68
10 0.04
11 0.05
12 0.28
13 -0.15
14 -0.15
15 -0.15
16 -0.15
17 -0.15
18 -0.15
19 0.16
2 0.05
20 0.16
21 -0.15
26 0.15
29 0.15
3 -0.57
30 0.15
31 0.15
32 0.15
33 0.15
34 0.15
35 0.15
36 0.15
37 0.15
38 0.4
4 -0.62
5 0.26
6 -0.2
7 0.17
9 0.05

> <PUBCHEM_EFFECTIVE_ROTOR_COUNT>
5

> <PUBCHEM_PHARMACOPHORE_FEATURES>
7
1 1 acceptor
1 1 donor
1 4 acceptor
3 2 3 10 cation
5 2 3 6 7 10 rings
6 11 15 16 17 18 21 rings
6 4 9 13 14 19 20 rings

> <PUBCHEM_HEAVY_ATOM_COUNT>
21

> <PUBCHEM_ATOM_DEF_STEREO_COUNT>
0

> <PUBCHEM_ATOM_UDEF_STEREO_COUNT>
0

> <PUBCHEM_BOND_DEF_STEREO_COUNT>
0

> <PUBCHEM_BOND_UDEF_STEREO_COUNT>
0

> <PUBCHEM_ISOTOPIC_ATOM_COUNT>
0

> <PUBCHEM_COMPONENT_COUNT>
1

> <PUBCHEM_CACTVS_TAUTO_COUNT>
1

> <PUBCHEM_CONFORMER_ID>
02F85BDF00000001

> <PUBCHEM_MMFF94_ENERGY>
49.0064

> <PUBCHEM_FEATURE_SELFOVERLAP>
35.522

> <PUBCHEM_SHAPE_FINGERPRINT>
10906281 52 18115603555931214485
1100329 8 18267581493259101768
11578080 2 17772748265258995289
12553582 1 17616272294707355339
12592029 89 18334581243350748289
12715332 25 18339924926007764924
12788726 201 17693098878364557758
12839892 36 18408038537297839227
12930653 34 18268430131388906572
13052359 8 18267020737786074886
13083527 12 18120076295870059379
13140716 1 18267030646755577353
14178342 30 18267607770069440153
14223421 5 18120375350068531493
14787075 74 17489586809187983192
14863182 85 18263945300868340063
14866123 147 18338226185091584746
15309172 13 18412267258854754524
16945 1 18199488652283184877
19591789 44 18265054815385173407
20028762 73 18128542759069749791
20197701 30 18341608235238793898
20645477 70 18337673006530815327
20905425 154 18121224169013860652
21033648 29 18270378582137155064
21054139 6 18200864197633424487
21330990 113 14562797838266417730
22224240 67 18272369806399990377
22956985 138 17898289407633408322
23184049 29 17758121397596686295
23419403 2 17316461921636088342
23559900 14 17824832135123931398
23728640 28 18338229492337221794
3383291 50 18269277868678100054
4072396 5 18261386732799389841
43471831 8 18264489494910433012
465052 167 17677344925289975129
474229 33 18409167727091413052
6138700 20 18337679590584194574
6669772 16 18271812298571683766
7364860 26 18267591208437942175
81228 2 17258494968882426521

> <PUBCHEM_SHAPE_MULTIPOLES>
411.36
8.19
3.44
1.29
2.7
3.34
-0.09
-4.32
-3.17
1.58
0.78
-0.11
0.48
0.54

> <PUBCHEM_SHAPE_SELFOVERLAP>
892.811

> <PUBCHEM_SHAPE_VOLUME>
226.1

> <PUBCHEM_COORDINATE_TYPE>
2
5
10

$$$$
