5282335
  -OEChem-10062121583D

 63 65  0     0  0  0  0  0  0999 V2000
   -6.6466    0.8324   -0.2611 S   0  0  0  0  0  0  0  0  0  0  0  0
   -4.0450    1.8691    0.9331 S   0  0  0  0  0  0  0  0  0  0  0  0
   -4.2476   -1.6402   -0.5414 O   0  0  0  0  0  0  0  0  0  0  0  0
    8.9534   -1.5035   -0.9783 O   0  0  0  0  0  0  0  0  0  0  0  0
    5.3969   -3.5745   -0.0223 O   0  0  0  0  0  0  0  0  0  0  0  0
   -0.1859    2.9959   -1.4192 O   0  0  0  0  0  0  0  0  0  0  0  0
    5.4236   -0.7407   -0.2372 N   0  0  0  0  0  0  0  0  0  0  0  0
   -5.8276   -2.4631    0.8520 N   0  0  0  0  0  0  0  0  0  0  0  0
   -1.5791    2.6915    0.4522 N   0  0  0  0  0  0  0  0  0  0  0  0
   -2.9806    2.0118   -1.4185 N   0  0  0  0  0  0  0  0  0  0  0  0
   -2.1914   -2.6695    0.1958 C   0  0  0  0  0  0  0  0  0  0  0  0
   -3.6396   -2.4864    0.3359 C   0  0  0  0  0  0  0  0  0  0  0  0
   -1.7146   -4.0977    0.6534 C   0  0  0  0  0  0  0  0  0  0  0  0
   -1.6126   -2.5206   -1.2652 C   0  0  0  0  0  0  0  0  0  0  0  0
   -1.3650   -1.6323    1.0430 C   0  0  0  0  0  0  0  0  0  0  0  0
    6.6597   -1.5254   -0.2277 C   0  0  0  0  0  0  0  0  0  0  0  0
   -4.6017   -2.9832    1.1794 C   0  0  0  0  0  0  0  0  0  0  0  0
    5.4958    0.3426    0.7299 C   0  0  0  0  0  0  0  0  0  0  0  0
    4.2366    1.1678    0.7429 C   0  0  0  0  0  0  0  0  0  0  0  0
   -5.5558   -1.6800   -0.1675 C   0  0  0  0  0  0  0  0  0  0  0  0
    7.7295   -0.7804   -1.0264 C   0  0  0  0  0  0  0  0  0  0  0  0
    6.3886   -2.9185   -0.8042 C   0  0  0  0  0  0  0  0  0  0  0  0
    1.9028    2.6960    0.7652 C   0  0  0  0  0  0  0  0  0  0  0  0
    3.1870    0.8255    1.5956 C   0  0  0  0  0  0  0  0  0  0  0  0
    4.1193    2.2741   -0.0986 C   0  0  0  0  0  0  0  0  0  0  0  0
   -6.4969   -0.8288   -0.9703 C   0  0  0  0  0  0  0  0  0  0  0  0
    2.0201    1.5896    1.6066 C   0  0  0  0  0  0  0  0  0  0  0  0
    2.9525    3.0381   -0.0875 C   0  0  0  0  0  0  0  0  0  0  0  0
    0.6552    3.5129    0.7766 C   0  0  0  0  0  0  0  0  0  0  0  0
   -0.4065    3.0382   -0.2135 C   0  0  0  0  0  0  0  0  0  0  0  0
   -5.0015    1.3991   -0.4107 C   0  0  0  0  0  0  0  0  0  0  0  0
   -2.7529    2.2193   -0.1406 C   0  0  0  0  0  0  0  0  0  0  0  0
   -4.2702    1.5413   -1.5714 C   0  0  0  0  0  0  0  0  0  0  0  0
   -2.2112   -4.8782    0.0653 H   0  0  0  0  0  0  0  0  0  0  0  0
   -1.9562   -4.2700    1.7086 H   0  0  0  0  0  0  0  0  0  0  0  0
   -0.6318   -4.2191    0.5367 H   0  0  0  0  0  0  0  0  0  0  0  0
   -0.5311   -2.6935   -1.2959 H   0  0  0  0  0  0  0  0  0  0  0  0
   -2.0947   -3.2367   -1.9405 H   0  0  0  0  0  0  0  0  0  0  0  0
   -1.8063   -1.5155   -1.6575 H   0  0  0  0  0  0  0  0  0  0  0  0
   -0.2864   -1.8028    0.9538 H   0  0  0  0  0  0  0  0  0  0  0  0
   -1.5775   -0.6092    0.7148 H   0  0  0  0  0  0  0  0  0  0  0  0
   -1.6331   -1.7019    2.1035 H   0  0  0  0  0  0  0  0  0  0  0  0
    7.0034   -1.6809    0.8042 H   0  0  0  0  0  0  0  0  0  0  0  0
   -4.4842   -3.6782    1.9975 H   0  0  0  0  0  0  0  0  0  0  0  0
    6.3345    1.0179    0.5268 H   0  0  0  0  0  0  0  0  0  0  0  0
    5.6652   -0.0526    1.7406 H   0  0  0  0  0  0  0  0  0  0  0  0
    4.6408   -1.3477    0.0085 H   0  0  0  0  0  0  0  0  0  0  0  0
    7.9326    0.2156   -0.6238 H   0  0  0  0  0  0  0  0  0  0  0  0
    7.4359   -0.6741   -2.0770 H   0  0  0  0  0  0  0  0  0  0  0  0
    6.0310   -2.8591   -1.8384 H   0  0  0  0  0  0  0  0  0  0  0  0
    7.2942   -3.5334   -0.7847 H   0  0  0  0  0  0  0  0  0  0  0  0
    3.2649   -0.0359    2.2537 H   0  0  0  0  0  0  0  0  0  0  0  0
    4.9290    2.5496   -0.7691 H   0  0  0  0  0  0  0  0  0  0  0  0
   -7.4886   -1.2925   -0.9679 H   0  0  0  0  0  0  0  0  0  0  0  0
   -6.1679   -0.7691   -2.0128 H   0  0  0  0  0  0  0  0  0  0  0  0
    1.2077    1.3109    2.2727 H   0  0  0  0  0  0  0  0  0  0  0  0
    2.8728    3.8962   -0.7496 H   0  0  0  0  0  0  0  0  0  0  0  0
    0.8843    4.5561    0.5214 H   0  0  0  0  0  0  0  0  0  0  0  0
    0.2574    3.5561    1.7980 H   0  0  0  0  0  0  0  0  0  0  0  0
    9.6007   -1.0053   -1.5058 H   0  0  0  0  0  0  0  0  0  0  0  0
    5.2551   -4.4509   -0.4190 H   0  0  0  0  0  0  0  0  0  0  0  0
   -1.6246    2.7728    1.4643 H   0  0  0  0  0  0  0  0  0  0  0  0
   -4.6253    1.3179   -2.5692 H   0  0  0  0  0  0  0  0  0  0  0  0
  1 26  1  0  0  0  0
  1 31  1  0  0  0  0
  2 31  1  0  0  0  0
  2 32  1  0  0  0  0
  3 12  1  0  0  0  0
  3 20  1  0  0  0  0
  4 21  1  0  0  0  0
  4 60  1  0  0  0  0
  5 22  1  0  0  0  0
  5 61  1  0  0  0  0
  6 30  2  0  0  0  0
  7 16  1  0  0  0  0
  7 18  1  0  0  0  0
  7 47  1  0  0  0  0
  8 17  1  0  0  0  0
  8 20  2  0  0  0  0
  9 30  1  0  0  0  0
  9 32  1  0  0  0  0
  9 62  1  0  0  0  0
 10 32  2  0  0  0  0
 10 33  1  0  0  0  0
 11 12  1  0  0  0  0
 11 13  1  0  0  0  0
 11 14  1  0  0  0  0
 11 15  1  0  0  0  0
 12 17  2  0  0  0  0
 13 34  1  0  0  0  0
 13 35  1  0  0  0  0
 13 36  1  0  0  0  0
 14 37  1  0  0  0  0
 14 38  1  0  0  0  0
 14 39  1  0  0  0  0
 15 40  1  0  0  0  0
 15 41  1  0  0  0  0
 15 42  1  0  0  0  0
 16 21  1  0  0  0  0
 16 22  1  0  0  0  0
 16 43  1  0  0  0  0
 17 44  1  0  0  0  0
 18 19  1  0  0  0  0
 18 45  1  0  0  0  0
 18 46  1  0  0  0  0
 19 24  2  0  0  0  0
 19 25  1  0  0  0  0
 20 26  1  0  0  0  0
 21 48  1  0  0  0  0
 21 49  1  0  0  0  0
 22 50  1  0  0  0  0
 22 51  1  0  0  0  0
 23 27  2  0  0  0  0
 23 28  1  0  0  0  0
 23 29  1  0  0  0  0
 24 27  1  0  0  0  0
 24 52  1  0  0  0  0
 25 28  2  0  0  0  0
 25 53  1  0  0  0  0
 26 54  1  0  0  0  0
 26 55  1  0  0  0  0
 27 56  1  0  0  0  0
 28 57  1  0  0  0  0
 29 30  1  0  0  0  0
 29 58  1  0  0  0  0
 29 59  1  0  0  0  0
 31 33  2  0  0  0  0
 33 63  1  0  0  0  0
M  END
> <PUBCHEM_COMPOUND_CID>
5282335

> <PUBCHEM_CONFORMER_RMSD>
1.2

> <PUBCHEM_CONFORMER_DIVERSEORDER>
1
34
71
25
31
4
23
30
74
32
16
51
69
39
54
3
18
64
8
7
55
21
15
2
73
13
68
60
37
72
42
57
48
49
62
58
19
29
20
27
67
46
38
52
22
47
59
70
26
14
36
12
24
9
53
50
43
41
44
10
65
45
11
35
61
63
28
17
33
40
5
6
56
66

> <PUBCHEM_MMFF94_PARTIAL_CHARGES>
40
1 -0.29
10 -0.57
11 0.18
12 -0.04
16 0.27
17 0.08
18 0.41
19 -0.14
2 -0.08
20 0.3
21 0.28
22 0.28
23 -0.14
24 -0.15
25 -0.15
26 0.41
27 -0.15
28 -0.15
29 0.2
3 -0.28
30 0.57
31 0.1
32 0.44
33 0.08
4 -0.68
44 0.15
47 0.36
5 -0.68
52 0.15
53 0.15
56 0.15
57 0.15
6 -0.57
60 0.4
61 0.4
62 0.37
63 0.15
7 -0.9
8 -0.57
9 -0.49

> <PUBCHEM_EFFECTIVE_ROTOR_COUNT>
13

> <PUBCHEM_PHARMACOPHORE_FEATURES>
12
1 4 acceptor
1 4 donor
1 5 acceptor
1 5 donor
1 6 acceptor
1 7 cation
1 7 donor
1 9 donor
4 11 13 14 15 hydrophobe
5 2 10 31 32 33 rings
5 3 8 12 17 20 rings
6 19 23 24 25 27 28 rings

> <PUBCHEM_HEAVY_ATOM_COUNT>
33

> <PUBCHEM_ATOM_DEF_STEREO_COUNT>
0

> <PUBCHEM_ATOM_UDEF_STEREO_COUNT>
0

> <PUBCHEM_BOND_DEF_STEREO_COUNT>
0

> <PUBCHEM_BOND_UDEF_STEREO_COUNT>
0

> <PUBCHEM_ISOTOPIC_ATOM_COUNT>
0

> <PUBCHEM_COMPONENT_COUNT>
1

> <PUBCHEM_CACTVS_TAUTO_COUNT>
3

> <PUBCHEM_CONFORMER_ID>
00509A1F00000001

> <PUBCHEM_MMFF94_ENERGY>
54.0631

> <PUBCHEM_FEATURE_SELFOVERLAP>
60.899

> <PUBCHEM_SHAPE_FINGERPRINT>
10305334 12 17986680264550952153
11135609 12 18338788022700957720
117089 54 18413113853123088390
11756154 5 18340760473504311704
11756154 67 18408889516764926220
12128747 34 18338797806425650054
12422481 6 18265627653260503209
12645989 146 18270961374891919495
1361 4 18268713797653168814
14117953 113 18187068556831680125
14420673 8 18411136944338762077
15001296 14 18041830826416024457
15183329 4 18411418389134716026
15230672 131 18189043214594213041
15351339 4 18261664871029987594
15510800 12 17845947234518688990
15781502 589 18269553832874367670
15968369 153 18057866018623690722
15975801 100 17314218982671685436
17627616 140 18116141169809052491
17852330 162 18188217611060300052
19958102 18 18410849992951389699
21196832 93 18410298004429591694
21792965 302 18040998480057671764
3383291 50 18413099563450565403
373842 8 18413671309486329534
4144715 1 18044661029834613051
437795 70 18408042909838316834
44880168 125 18130219471072496359
6437827 68 18263638632067287785
7970288 3 18411980222380939088

> <PUBCHEM_SHAPE_MULTIPOLES>
643.42
20.65
5.65
1.34
27.33
1.51
0.01
14.22
5.37
-0.09
-0.34
-0.13
-0.16
2.91

> <PUBCHEM_SHAPE_SELFOVERLAP>
1314.643

> <PUBCHEM_SHAPE_VOLUME>
374.8

> <PUBCHEM_COORDINATE_TYPE>
2
5
10

$$$$
