24859158
  -OEChem-10062121523D

 31 33  0     0  0  0  0  0  0999 V2000
   -5.7680   -0.6877    0.0014 F   0  0  0  0  0  0  0  0  0  0  0  0
   -3.5234    3.4669    0.0000 F   0  0  0  0  0  0  0  0  0  0  0  0
    1.7860   -1.7251   -0.0011 O   0  0  0  0  0  0  0  0  0  0  0  0
    0.2385    0.0326   -0.0010 N   0  0  0  0  0  0  0  0  0  0  0  0
   -3.3942   -2.0389    0.0005 N   0  0  0  0  0  0  0  0  0  0  0  0
    2.4952    0.5034   -0.0016 N   0  0  0  0  0  0  0  0  0  0  0  0
    4.4649   -0.8459   -0.0002 N   0  0  0  0  0  0  0  0  0  0  0  0
    6.0120    1.4935    0.0013 N   0  0  0  0  0  0  0  0  0  0  0  0
   -2.2114    0.0608   -0.0002 C   0  0  0  0  0  0  0  0  0  0  0  0
   -0.9934   -0.6325   -0.0007 C   0  0  0  0  0  0  0  0  0  0  0  0
   -3.4041   -0.6925    0.0005 C   0  0  0  0  0  0  0  0  0  0  0  0
   -2.2588    1.4651   -0.0004 C   0  0  0  0  0  0  0  0  0  0  0  0
   -0.9799   -2.0198   -0.0006 C   0  0  0  0  0  0  0  0  0  0  0  0
   -4.6137   -0.0033    0.0008 C   0  0  0  0  0  0  0  0  0  0  0  0
   -3.4825    2.1284    0.0001 C   0  0  0  0  0  0  0  0  0  0  0  0
   -4.6613    1.3930    0.0007 C   0  0  0  0  0  0  0  0  0  0  0  0
   -2.1975   -2.6697    0.0001 C   0  0  0  0  0  0  0  0  0  0  0  0
    1.5378   -0.5236   -0.0013 C   0  0  0  0  0  0  0  0  0  0  0  0
    3.9048    0.3800   -0.0018 C   0  0  0  0  0  0  0  0  0  0  0  0
    4.6647    1.5291   -0.0010 C   0  0  0  0  0  0  0  0  0  0  0  0
    5.8123   -0.8815    0.0019 C   0  0  0  0  0  0  0  0  0  0  0  0
    6.5721    0.2675    0.0027 C   0  0  0  0  0  0  0  0  0  0  0  0
   -1.3714    2.0890   -0.0009 H   0  0  0  0  0  0  0  0  0  0  0  0
   -0.1102   -2.6550   -0.0009 H   0  0  0  0  0  0  0  0  0  0  0  0
    0.2182    1.0453   -0.0010 H   0  0  0  0  0  0  0  0  0  0  0  0
   -5.6204    1.9022    0.0010 H   0  0  0  0  0  0  0  0  0  0  0  0
   -2.2510   -3.7537    0.0003 H   0  0  0  0  0  0  0  0  0  0  0  0
    2.1412    1.4568   -0.0018 H   0  0  0  0  0  0  0  0  0  0  0  0
    4.2272    2.5209   -0.0014 H   0  0  0  0  0  0  0  0  0  0  0  0
    6.2630   -1.8662    0.0031 H   0  0  0  0  0  0  0  0  0  0  0  0
    7.6546    0.2380    0.0045 H   0  0  0  0  0  0  0  0  0  0  0  0
  1 14  1  0  0  0  0
  2 15  1  0  0  0  0
  3 18  2  0  0  0  0
  4 10  1  0  0  0  0
  4 18  1  0  0  0  0
  4 25  1  0  0  0  0
  5 11  2  0  0  0  0
  5 17  1  0  0  0  0
  6 18  1  0  0  0  0
  6 19  1  0  0  0  0
  6 28  1  0  0  0  0
  7 19  2  0  0  0  0
  7 21  1  0  0  0  0
  8 20  2  0  0  0  0
  8 22  1  0  0  0  0
  9 10  2  0  0  0  0
  9 11  1  0  0  0  0
  9 12  1  0  0  0  0
 10 13  1  0  0  0  0
 11 14  1  0  0  0  0
 12 15  2  0  0  0  0
 12 23  1  0  0  0  0
 13 17  2  0  0  0  0
 13 24  1  0  0  0  0
 14 16  2  0  0  0  0
 15 16  1  0  0  0  0
 16 26  1  0  0  0  0
 17 27  1  0  0  0  0
 19 20  1  0  0  0  0
 20 29  1  0  0  0  0
 21 22  2  0  0  0  0
 21 30  1  0  0  0  0
 22 31  1  0  0  0  0
M  END
> <PUBCHEM_COMPOUND_CID>
24859158

> <PUBCHEM_CONFORMER_RMSD>
0.6

> <PUBCHEM_CONFORMER_DIVERSEORDER>
1
15
26
24
19
10
12
9
23
27
17
16
2
8
11
6
18
25
7
20
13
21
4
3
22
14
5
28

> <PUBCHEM_MMFF94_PARTIAL_CHARGES>
30
1 -0.19
10 0.12
11 0.31
12 -0.15
13 -0.15
14 0.19
15 0.19
16 -0.15
17 0.16
18 0.69
19 0.43
2 -0.19
20 0.16
21 0.16
22 0.16
23 0.15
24 0.15
25 0.37
26 0.15
27 0.15
28 0.37
29 0.15
3 -0.57
30 0.15
31 0.15
4 -0.55
5 -0.62
6 -0.55
7 -0.62
8 -0.62

> <PUBCHEM_EFFECTIVE_ROTOR_COUNT>
4

> <PUBCHEM_PHARMACOPHORE_FEATURES>
8
1 3 acceptor
1 4 donor
1 5 acceptor
1 6 donor
1 8 acceptor
6 5 9 10 11 13 17 rings
6 7 8 19 20 21 22 rings
6 9 11 12 14 15 16 rings

> <PUBCHEM_HEAVY_ATOM_COUNT>
22

> <PUBCHEM_ATOM_DEF_STEREO_COUNT>
0

> <PUBCHEM_ATOM_UDEF_STEREO_COUNT>
0

> <PUBCHEM_BOND_DEF_STEREO_COUNT>
0

> <PUBCHEM_BOND_UDEF_STEREO_COUNT>
0

> <PUBCHEM_ISOTOPIC_ATOM_COUNT>
0

> <PUBCHEM_COMPONENT_COUNT>
1

> <PUBCHEM_CACTVS_TAUTO_COUNT>
11

> <PUBCHEM_CONFORMER_ID>
017B521600000001

> <PUBCHEM_MMFF94_ENERGY>
68.06

> <PUBCHEM_FEATURE_SELFOVERLAP>
40.678

> <PUBCHEM_SHAPE_FINGERPRINT>
10595046 47 18335983168574956326
11315181 36 18040999574482664380
11578080 2 13756701844956397681
12107183 9 17903066742958850234
12236239 1 17894629257845801834
12390115 104 18200044936653130097
12403259 415 17988635316003719904
12596602 18 17240765128809237064
12916748 109 18409735062338201962
13073987 5 18335136501719524834
13167823 11 18335699468800269010
13785724 45 17689994541029502802
14251764 75 17838906936691357921
14341114 176 18409172129733552340
14508225 48 17982999340207781951
14933364 13 18411704296707306916
15042514 8 18264492965561162515
15183329 4 18411139117665807146
15196674 1 18410855456350341064
17844677 252 18410581721052501296
1813 80 16515689910030356070
19489759 90 18342737420589733626
20281389 69 18408039619988306672
20645477 56 18411139129848991463
20645477 70 16916799435724084886
21033648 29 17846203502079255144
21065198 57 18411418453706528274
21236236 1 18413107264674664277
21267235 1 18336552706823801299
21279426 13 18198064681904144526
21315763 129 18412262848492800492
21315764 268 18409724084629264004
23402539 116 18412821417099649175
23557571 272 18272376360230186908
23559900 14 18270392910057577960
245318 6 16737783790036087764
3004659 81 18409168788934863226
34797466 226 17846508062457858100
350125 39 18411700989429761697
3545911 37 18411983563675097590
4073 2 18041565845105578770
4214541 1 18410573994237322852
441001 317 18411699885074312960
445580 37 18337966653318632164
5104073 3 18188494562180544010
5283173 99 18413107238942147824
54446538 1 18408322194445015980
559249 180 18338231570974948290
59755656 215 18341056225189762918
59755656 520 17167859785621211123
6327066 14 18117833297125404829
77779 3 18410293640479237006
9965369 4 18336261250337709762
9981440 41 18334020471421149627
9996256 80 18341894103798418559

> <PUBCHEM_SHAPE_MULTIPOLES>
407.43
15.11
2.61
0.58
19.1
0.56
0
4.27
0.01
-2.96
0
0
0
0

> <PUBCHEM_SHAPE_SELFOVERLAP>
900.787

> <PUBCHEM_SHAPE_VOLUME>
216.6

> <PUBCHEM_COORDINATE_TYPE>
2
5
10

$$$$
