49830815
  -OEChem-10062121533D

 73 77  0     0  0  0  0  0  0999 V2000
    3.1959   -1.3116    1.6439 S   0  0  0  0  0  0  0  0  0  0  0  0
   -3.0919    1.8608    1.7980 O   0  0  0  0  0  0  0  0  0  0  0  0
   -5.2199   -1.7828   -1.0577 O   0  0  0  0  0  0  0  0  0  0  0  0
    8.3048   -1.0587    0.9195 O   0  0  0  0  0  0  0  0  0  0  0  0
   -7.9797   -1.2759   -0.3718 N   0  0  0  0  0  0  0  0  0  0  0  0
   -4.6298    0.0550    0.2768 N   0  0  0  0  0  0  0  0  0  0  0  0
    2.9658    1.3326   -1.9641 N   0  0  0  0  0  0  0  0  0  0  0  0
   12.7207   -0.1519   -0.1859 N   0  0  0  0  0  0  0  0  0  0  0  0
    0.6099    1.3111   -1.7760 N   0  0  0  0  0  0  0  0  0  0  0  0
    9.1777    0.9505    0.1428 N   0  0  0  0  0  0  0  0  0  0  0  0
   -9.1746   -0.6021   -0.2550 C   0  0  0  0  0  0  0  0  0  0  0  0
   -6.9334   -0.3947   -0.3169 C   0  0  0  0  0  0  0  0  0  0  0  0
   -8.8702    0.7543   -0.1214 C   0  0  0  0  0  0  0  0  0  0  0  0
    0.9715   -0.4955    0.6753 C   0  0  0  0  0  0  0  0  0  0  0  0
    1.9817    0.0725   -0.1709 C   0  0  0  0  0  0  0  0  0  0  0  0
   -7.4525    0.8700   -0.1623 C   0  0  0  0  0  0  0  0  0  0  0  0
   -0.4541   -0.3522    0.5768 C   0  0  0  0  0  0  0  0  0  0  0  0
    3.2615   -0.2984    0.2511 C   0  0  0  0  0  0  0  0  0  0  0  0
   -3.2233   -0.0735    0.3845 C   0  0  0  0  0  0  0  0  0  0  0  0
   -5.5538   -0.7637   -0.4093 C   0  0  0  0  0  0  0  0  0  0  0  0
  -10.4881   -1.0846   -0.2572 C   0  0  0  0  0  0  0  0  0  0  0  0
   -1.0976    0.6928    1.2398 C   0  0  0  0  0  0  0  0  0  0  0  0
   -7.8487   -2.7097   -0.5292 C   0  0  0  0  0  0  0  0  0  0  0  0
   -2.4822    0.8324    1.1436 C   0  0  0  0  0  0  0  0  0  0  0  0
    4.4058    0.1395   -0.4262 C   0  0  0  0  0  0  0  0  0  0  0  0
   -9.9268    1.6761    0.0171 C   0  0  0  0  0  0  0  0  0  0  0  0
    1.4927   -1.2621    1.6906 C   0  0  0  0  0  0  0  0  0  0  0  0
   -1.1951   -1.2579   -0.1822 C   0  0  0  0  0  0  0  0  0  0  0  0
    1.8710    0.9011   -1.2988 C   0  0  0  0  0  0  0  0  0  0  0  0
   -2.5797   -1.1185   -0.2782 C   0  0  0  0  0  0  0  0  0  0  0  0
  -11.5198   -0.1518   -0.1191 C   0  0  0  0  0  0  0  0  0  0  0  0
  -11.2458    1.2078    0.0161 C   0  0  0  0  0  0  0  0  0  0  0  0
    4.1808    0.9515   -1.5240 C   0  0  0  0  0  0  0  0  0  0  0  0
    5.7343   -0.2380    0.0101 C   0  0  0  0  0  0  0  0  0  0  0  0
   11.3322    0.0404   -0.5842 C   0  0  0  0  0  0  0  0  0  0  0  0
   10.5525    0.7247    0.5290 C   0  0  0  0  0  0  0  0  0  0  0  0
    6.8504    0.5197   -0.1233 C   0  0  0  0  0  0  0  0  0  0  0  0
    8.1682    0.0315    0.3742 C   0  0  0  0  0  0  0  0  0  0  0  0
   13.5769   -0.3183   -1.3620 C   0  0  0  0  0  0  0  0  0  0  0  0
   12.8478   -1.3096    0.7015 C   0  0  0  0  0  0  0  0  0  0  0  0
   -3.2351    3.0874    1.0847 C   0  0  0  0  0  0  0  0  0  0  0  0
   -6.8875    1.7903   -0.0922 H   0  0  0  0  0  0  0  0  0  0  0  0
  -10.7194   -2.1384   -0.3655 H   0  0  0  0  0  0  0  0  0  0  0  0
   -0.5278    1.4045    1.8338 H   0  0  0  0  0  0  0  0  0  0  0  0
   -8.7845   -3.2103   -0.2755 H   0  0  0  0  0  0  0  0  0  0  0  0
   -7.0755   -3.0737    0.1524 H   0  0  0  0  0  0  0  0  0  0  0  0
   -7.5890   -2.9184   -1.5700 H   0  0  0  0  0  0  0  0  0  0  0  0
    0.9618   -1.8006    2.4646 H   0  0  0  0  0  0  0  0  0  0  0  0
   -9.7274    2.7386    0.1233 H   0  0  0  0  0  0  0  0  0  0  0  0
   -0.7076   -2.0764   -0.7069 H   0  0  0  0  0  0  0  0  0  0  0  0
   -5.0114    0.8417    0.7973 H   0  0  0  0  0  0  0  0  0  0  0  0
   -3.0785   -1.8563   -0.8893 H   0  0  0  0  0  0  0  0  0  0  0  0
  -12.5519   -0.4933   -0.1181 H   0  0  0  0  0  0  0  0  0  0  0  0
  -12.0649    1.9142    0.1221 H   0  0  0  0  0  0  0  0  0  0  0  0
    4.9990    1.3367   -2.1262 H   0  0  0  0  0  0  0  0  0  0  0  0
    5.8245   -1.2155    0.4771 H   0  0  0  0  0  0  0  0  0  0  0  0
   10.8561   -0.9031   -0.8828 H   0  0  0  0  0  0  0  0  0  0  0  0
   11.2788    0.6958   -1.4647 H   0  0  0  0  0  0  0  0  0  0  0  0
   10.5498    0.1336    1.4500 H   0  0  0  0  0  0  0  0  0  0  0  0
   10.9844    1.7054    0.7585 H   0  0  0  0  0  0  0  0  0  0  0  0
    0.5862    1.9082   -2.5926 H   0  0  0  0  0  0  0  0  0  0  0  0
   -0.2585    1.0416   -1.3467 H   0  0  0  0  0  0  0  0  0  0  0  0
    6.8122    1.5058   -0.5751 H   0  0  0  0  0  0  0  0  0  0  0  0
    8.9653    1.8271   -0.3248 H   0  0  0  0  0  0  0  0  0  0  0  0
   13.5367    0.5727   -1.9985 H   0  0  0  0  0  0  0  0  0  0  0  0
   13.2871   -1.1876   -1.9635 H   0  0  0  0  0  0  0  0  0  0  0  0
   14.6240   -0.4390   -1.0624 H   0  0  0  0  0  0  0  0  0  0  0  0
   12.5063   -2.2365    0.2260 H   0  0  0  0  0  0  0  0  0  0  0  0
   13.8944   -1.4476    0.9973 H   0  0  0  0  0  0  0  0  0  0  0  0
   12.2890   -1.1719    1.6320 H   0  0  0  0  0  0  0  0  0  0  0  0
   -3.7703    3.7947    1.7240 H   0  0  0  0  0  0  0  0  0  0  0  0
   -3.8129    2.9398    0.1668 H   0  0  0  0  0  0  0  0  0  0  0  0
   -2.2525    3.5063    0.8454 H   0  0  0  0  0  0  0  0  0  0  0  0
  1 18  1  0  0  0  0
  1 27  1  0  0  0  0
  2 24  1  0  0  0  0
  2 41  1  0  0  0  0
  3 20  2  0  0  0  0
  4 38  2  0  0  0  0
  5 11  1  0  0  0  0
  5 12  1  0  0  0  0
  5 23  1  0  0  0  0
  6 19  1  0  0  0  0
  6 20  1  0  0  0  0
  6 51  1  0  0  0  0
  7 29  2  0  0  0  0
  7 33  1  0  0  0  0
  8 35  1  0  0  0  0
  8 39  1  0  0  0  0
  8 40  1  0  0  0  0
  9 29  1  0  0  0  0
  9 61  1  0  0  0  0
  9 62  1  0  0  0  0
 10 36  1  0  0  0  0
 10 38  1  0  0  0  0
 10 64  1  0  0  0  0
 11 13  1  0  0  0  0
 11 21  2  0  0  0  0
 12 16  2  0  0  0  0
 12 20  1  0  0  0  0
 13 16  1  0  0  0  0
 13 26  2  0  0  0  0
 14 15  1  0  0  0  0
 14 17  1  0  0  0  0
 14 27  2  0  0  0  0
 15 18  2  0  0  0  0
 15 29  1  0  0  0  0
 16 42  1  0  0  0  0
 17 22  2  0  0  0  0
 17 28  1  0  0  0  0
 18 25  1  0  0  0  0
 19 24  2  0  0  0  0
 19 30  1  0  0  0  0
 21 31  1  0  0  0  0
 21 43  1  0  0  0  0
 22 24  1  0  0  0  0
 22 44  1  0  0  0  0
 23 45  1  0  0  0  0
 23 46  1  0  0  0  0
 23 47  1  0  0  0  0
 25 33  2  0  0  0  0
 25 34  1  0  0  0  0
 26 32  1  0  0  0  0
 26 49  1  0  0  0  0
 27 48  1  0  0  0  0
 28 30  2  0  0  0  0
 28 50  1  0  0  0  0
 30 52  1  0  0  0  0
 31 32  2  0  0  0  0
 31 53  1  0  0  0  0
 32 54  1  0  0  0  0
 33 55  1  0  0  0  0
 34 37  2  3  0  0  0
 34 56  1  0  0  0  0
 35 36  1  0  0  0  0
 35 57  1  0  0  0  0
 35 58  1  0  0  0  0
 36 59  1  0  0  0  0
 36 60  1  0  0  0  0
 37 38  1  0  0  0  0
 37 63  1  0  0  0  0
 39 65  1  0  0  0  0
 39 66  1  0  0  0  0
 39 67  1  0  0  0  0
 40 68  1  0  0  0  0
 40 69  1  0  0  0  0
 40 70  1  0  0  0  0
 41 71  1  0  0  0  0
 41 72  1  0  0  0  0
 41 73  1  0  0  0  0
M  END
> <PUBCHEM_COMPOUND_CID>
49830815

> <PUBCHEM_CONFORMER_RMSD>
1.2

> <PUBCHEM_CONFORMER_DIVERSEORDER>
1
8
12
10
16
9
13
11
5
7
15
14
3
2
4
6

> <PUBCHEM_MMFF94_PARTIAL_CHARGES>
55
1 -0.08
10 -0.73
11 -0.15
12 -0.24
14 -0.05
16 -0.15
17 0.05
18 0.04
19 0.12
2 -0.36
20 0.71
21 -0.15
22 -0.15
23 0.26
24 0.08
25 0.03
26 -0.15
27 -0.11
28 -0.15
29 0.41
3 -0.57
30 -0.15
31 -0.15
32 -0.15
33 0.16
34 -0.18
35 0.27
36 0.3
37 -0.14
38 0.62
39 0.27
4 -0.57
40 0.27
41 0.28
42 0.15
43 0.15
44 0.15
48 0.15
49 0.15
5 0.05
50 0.15
51 0.37
52 0.15
53 0.15
54 0.15
55 0.15
56 0.15
6 -0.55
61 0.4
62 0.4
63 0.15
64 0.37
7 -0.62
8 -0.81
9 -0.9

> <PUBCHEM_EFFECTIVE_ROTOR_COUNT>
11

> <PUBCHEM_PHARMACOPHORE_FEATURES>
14
1 10 donor
1 2 acceptor
1 3 acceptor
1 4 acceptor
1 5 cation
1 6 donor
1 8 cation
1 9 donor
3 7 9 29 cation
5 1 14 15 18 27 rings
5 5 11 12 13 16 rings
6 11 13 21 26 31 32 rings
6 17 19 22 24 28 30 rings
6 7 15 18 25 29 33 rings

> <PUBCHEM_HEAVY_ATOM_COUNT>
41

> <PUBCHEM_ATOM_DEF_STEREO_COUNT>
0

> <PUBCHEM_ATOM_UDEF_STEREO_COUNT>
0

> <PUBCHEM_BOND_DEF_STEREO_COUNT>
0

> <PUBCHEM_BOND_UDEF_STEREO_COUNT>
1

> <PUBCHEM_ISOTOPIC_ATOM_COUNT>
0

> <PUBCHEM_COMPONENT_COUNT>
1

> <PUBCHEM_CACTVS_TAUTO_COUNT>
14

> <PUBCHEM_CONFORMER_ID>
02F85B9F00000001

> <PUBCHEM_MMFF94_ENERGY>
127.0356

> <PUBCHEM_FEATURE_SELFOVERLAP>
71.204

> <PUBCHEM_SHAPE_FINGERPRINT>
10165383 225 13623525766599729552
10299344 5 18259982679233603811
10580692 12 18341051835838440618
12013929 2 18113618989520081184
12522641 33 18342178861074960734
12664476 115 16515681148423464757
12741549 16 16272209695620069688
14251764 46 18343582949869883518
14294032 229 18198914604920845753
15061470 23 18410571790486921184
15183329 4 18343024398749099881
15274700 256 18202281402974886145
15840311 113 18335420205774069804
20105231 36 11311786072532446944
232437 2 18407476670404059438
3092352 35 18040717000865257875
335352 9 17313384548484479382
59521270 166 18343863295776467949
9663363 56 17275103934213322833

> <PUBCHEM_SHAPE_MULTIPOLES>
800.12
52.11
1.82
1.33
74.1
0.24
0.02
-4.05
-8.03
-3.34
0.2
1.35
0.24
-2.32

> <PUBCHEM_SHAPE_SELFOVERLAP>
1735.057

> <PUBCHEM_SHAPE_VOLUME>
443.1

> <PUBCHEM_COORDINATE_TYPE>
2
5
10

$$$$
