52945753
  -OEChem-10052115163D

 55 59  0     0  0  0  0  0  0999 V2000
   -9.9041   -2.0380    0.2258 O   0  0  0  0  0  0  0  0  0  0  0  0
   -4.5302    1.5478    0.0741 O   0  0  0  0  0  0  0  0  0  0  0  0
   -7.4331   -0.7013   -0.2314 N   0  0  0  0  0  0  0  0  0  0  0  0
    3.3001    1.8329   -0.1466 N   0  0  0  0  0  0  0  0  0  0  0  0
    3.0454   -0.5248    0.2382 N   0  0  0  0  0  0  0  0  0  0  0  0
    4.2735    2.7641   -0.3275 N   0  0  0  0  0  0  0  0  0  0  0  0
    7.9752   -2.4600    0.3866 N   0  0  0  0  0  0  0  0  0  0  0  0
    6.9994   -3.5398   -1.4998 N   0  0  0  0  0  0  0  0  0  0  0  0
   -8.4542   -0.8097   -1.2828 C   0  0  0  0  0  0  0  0  0  0  0  0
   -8.0710   -0.7060    1.0923 C   0  0  0  0  0  0  0  0  0  0  0  0
   -6.6259    0.5031   -0.4142 C   0  0  0  0  0  0  0  0  0  0  0  0
   -9.2917   -2.0664   -1.0640 C   0  0  0  0  0  0  0  0  0  0  0  0
   -8.9166   -1.9659    1.2548 C   0  0  0  0  0  0  0  0  0  0  0  0
   -5.2868    0.3642    0.2921 C   0  0  0  0  0  0  0  0  0  0  0  0
   -3.1660    1.4166    0.0685 C   0  0  0  0  0  0  0  0  0  0  0  0
   -0.3890    1.1512    0.0580 C   0  0  0  0  0  0  0  0  0  0  0  0
    1.0747    1.0126    0.0538 C   0  0  0  0  0  0  0  0  0  0  0  0
    3.8404    0.5622    0.0385 C   0  0  0  0  0  0  0  0  0  0  0  0
    5.2073    0.7074   -0.0288 C   0  0  0  0  0  0  0  0  0  0  0  0
    1.9224    2.0369   -0.1374 C   0  0  0  0  0  0  0  0  0  0  0  0
   -2.3863    2.2746   -0.7073 C   0  0  0  0  0  0  0  0  0  0  0  0
   -2.5572    0.4260    0.8390 C   0  0  0  0  0  0  0  0  0  0  0  0
   -0.9979    2.1418   -0.7126 C   0  0  0  0  0  0  0  0  0  0  0  0
   -1.1687    0.2933    0.8337 C   0  0  0  0  0  0  0  0  0  0  0  0
    6.1440   -0.3660    0.1126 C   0  0  0  0  0  0  0  0  0  0  0  0
    1.7657   -0.3022    0.2427 C   0  0  0  0  0  0  0  0  0  0  0  0
    5.4117    2.0752   -0.2540 C   0  0  0  0  0  0  0  0  0  0  0  0
    6.1143   -1.4393   -0.7709 C   0  0  0  0  0  0  0  0  0  0  0  0
    7.0882   -0.3384    1.1330 C   0  0  0  0  0  0  0  0  0  0  0  0
    7.0431   -2.4519   -0.5925 C   0  0  0  0  0  0  0  0  0  0  0  0
    7.9734   -1.4003    1.2262 C   0  0  0  0  0  0  0  0  0  0  0  0
   -7.9820   -0.8694   -2.2701 H   0  0  0  0  0  0  0  0  0  0  0  0
   -9.1070    0.0729   -1.2695 H   0  0  0  0  0  0  0  0  0  0  0  0
   -7.3265   -0.6916    1.8944 H   0  0  0  0  0  0  0  0  0  0  0  0
   -8.7129    0.1771    1.2094 H   0  0  0  0  0  0  0  0  0  0  0  0
   -7.1497    1.4117   -0.0887 H   0  0  0  0  0  0  0  0  0  0  0  0
   -6.4096    0.6600   -1.4801 H   0  0  0  0  0  0  0  0  0  0  0  0
  -10.0909   -2.1162   -1.8105 H   0  0  0  0  0  0  0  0  0  0  0  0
   -8.6884   -2.9771   -1.1629 H   0  0  0  0  0  0  0  0  0  0  0  0
   -8.3000   -2.8728    1.2353 H   0  0  0  0  0  0  0  0  0  0  0  0
   -9.4400   -1.9421    2.2161 H   0  0  0  0  0  0  0  0  0  0  0  0
   -4.7785   -0.5202   -0.1159 H   0  0  0  0  0  0  0  0  0  0  0  0
   -5.4175    0.2394    1.3720 H   0  0  0  0  0  0  0  0  0  0  0  0
    1.6040    3.0628   -0.2833 H   0  0  0  0  0  0  0  0  0  0  0  0
   -2.8560    3.0453   -1.3123 H   0  0  0  0  0  0  0  0  0  0  0  0
   -3.1246   -0.2410    1.4811 H   0  0  0  0  0  0  0  0  0  0  0  0
   -0.4243    2.8163   -1.3426 H   0  0  0  0  0  0  0  0  0  0  0  0
   -0.7242   -0.4709    1.4653 H   0  0  0  0  0  0  0  0  0  0  0  0
    1.1095   -1.1764    0.3791 H   0  0  0  0  0  0  0  0  0  0  0  0
    6.3451    2.6082   -0.3700 H   0  0  0  0  0  0  0  0  0  0  0  0
    5.3915   -1.4835   -1.5812 H   0  0  0  0  0  0  0  0  0  0  0  0
    7.1435    0.4796    1.8441 H   0  0  0  0  0  0  0  0  0  0  0  0
    8.7288   -1.4270    2.0046 H   0  0  0  0  0  0  0  0  0  0  0  0
    7.6759   -4.2802   -1.3615 H   0  0  0  0  0  0  0  0  0  0  0  0
    6.1123   -3.7747   -1.9279 H   0  0  0  0  0  0  0  0  0  0  0  0
  1 12  1  0  0  0  0
  1 13  1  0  0  0  0
  2 14  1  0  0  0  0
  2 15  1  0  0  0  0
  3  9  1  0  0  0  0
  3 10  1  0  0  0  0
  3 11  1  0  0  0  0
  4  6  1  0  0  0  0
  4 18  1  0  0  0  0
  4 20  1  0  0  0  0
  5 18  1  0  0  0  0
  5 26  2  0  0  0  0
  6 27  2  0  0  0  0
  7 30  2  0  0  0  0
  7 31  1  0  0  0  0
  8 30  1  0  0  0  0
  8 54  1  0  0  0  0
  8 55  1  0  0  0  0
  9 12  1  0  0  0  0
  9 32  1  0  0  0  0
  9 33  1  0  0  0  0
 10 13  1  0  0  0  0
 10 34  1  0  0  0  0
 10 35  1  0  0  0  0
 11 14  1  0  0  0  0
 11 36  1  0  0  0  0
 11 37  1  0  0  0  0
 12 38  1  0  0  0  0
 12 39  1  0  0  0  0
 13 40  1  0  0  0  0
 13 41  1  0  0  0  0
 14 42  1  0  0  0  0
 14 43  1  0  0  0  0
 15 21  2  0  0  0  0
 15 22  1  0  0  0  0
 16 17  1  0  0  0  0
 16 23  2  0  0  0  0
 16 24  1  0  0  0  0
 17 20  2  0  0  0  0
 17 26  1  0  0  0  0
 18 19  2  0  0  0  0
 19 25  1  0  0  0  0
 19 27  1  0  0  0  0
 20 44  1  0  0  0  0
 21 23  1  0  0  0  0
 21 45  1  0  0  0  0
 22 24  2  0  0  0  0
 22 46  1  0  0  0  0
 23 47  1  0  0  0  0
 24 48  1  0  0  0  0
 25 28  2  0  0  0  0
 25 29  1  0  0  0  0
 26 49  1  0  0  0  0
 27 50  1  0  0  0  0
 28 30  1  0  0  0  0
 28 51  1  0  0  0  0
 29 31  2  0  0  0  0
 29 52  1  0  0  0  0
 31 53  1  0  0  0  0
M  END
> <PUBCHEM_COMPOUND_CID>
52945753

> <PUBCHEM_CONFORMER_RMSD>
1

> <PUBCHEM_CONFORMER_DIVERSEORDER>
1
18
24
4
27
52
37
31
6
56
20
25
41
45
21
35
53
17
46
51
47
28
14
42
58
10
26
55
7
50
3
34
39
38
44
49
23
54
32
48
16
11
12
40
36
22
29
8
19
33
2
57
15
9
30
43
13
5

> <PUBCHEM_MMFF94_PARTIAL_CHARGES>
43
1 -0.56
10 0.27
11 0.27
12 0.28
13 0.28
14 0.28
15 0.08
16 0.03
17 -0.01
18 -0.03
19 -0.05
2 -0.36
20 -0.18
21 -0.15
22 -0.15
23 -0.15
24 -0.15
25 0.05
26 0.38
27 0.14
28 -0.15
29 -0.15
3 -0.81
30 0.41
31 0.16
4 0.6
44 0.15
45 0.15
46 0.15
47 0.15
48 0.15
49 0.06
5 -0.58
50 0.15
51 0.15
52 0.15
53 0.15
54 0.4
55 0.4
6 -0.71
7 -0.62
8 -0.9
9 0.27

> <PUBCHEM_EFFECTIVE_ROTOR_COUNT>
7.2

> <PUBCHEM_PHARMACOPHORE_FEATURES>
12
1 1 acceptor
1 2 acceptor
1 3 cation
1 5 acceptor
1 6 acceptor
1 8 donor
3 7 8 30 cation
5 4 6 18 19 27 rings
6 1 3 9 10 12 13 rings
6 15 16 21 22 23 24 rings
6 4 5 17 18 20 26 rings
6 7 25 28 29 30 31 rings

> <PUBCHEM_HEAVY_ATOM_COUNT>
31

> <PUBCHEM_ATOM_DEF_STEREO_COUNT>
0

> <PUBCHEM_ATOM_UDEF_STEREO_COUNT>
0

> <PUBCHEM_BOND_DEF_STEREO_COUNT>
0

> <PUBCHEM_BOND_UDEF_STEREO_COUNT>
0

> <PUBCHEM_ISOTOPIC_ATOM_COUNT>
0

> <PUBCHEM_COMPONENT_COUNT>
1

> <PUBCHEM_CACTVS_TAUTO_COUNT>
2

> <PUBCHEM_CONFORMER_ID>
0327E35900000001

> <PUBCHEM_MMFF94_ENERGY>
96.0106

> <PUBCHEM_FEATURE_SELFOVERLAP>
61.026

> <PUBCHEM_SHAPE_FINGERPRINT>
10 15 12391511983748923781
10066227 49 18411700976428724271
10299344 5 18131355250274167729
11211813 74 8935002568461808170
11386260 185 16660651790409935044
11408170 108 18342745100957285627
11456790 92 17132112424834133368
11497681 19 18409165485550955885
11607047 141 12966588408549322532
11672396 43 18334019380393610197
12082328 90 18408599263360372269
12089408 11 18272654571902177673
13553643 46 10159711174752262011
13668630 136 18334574629454708965
13692114 37 18408599280081727994
13782708 43 18333735693630080720
13811026 1 18335139795679937291
13974486 7 18048875196708243802
14537116 161 13984665858770732030
14617042 71 10591752212823730690
150020 25 17821723958229550959
15198563 99 16878213191939406869
15347590 135 15698004015932748571
15399244 38 18271804675384989831
15461852 350 13767932338906622281
15690457 1 18411976962025527187
16991971 28 17967817163144160365
1754908 1 16415476065114806499
1754911 235 11674879987373453539
1818759 1 18408890633514243843
18335252 114 13695592148351975334
18603816 31 17560791191889963823
19301679 30 17774449261592421276
20165401 70 18272368638348922774
2026 5 18338516335332585867
20771845 140 16559034878852900796
20982279 24 18114762472838976635
21095123 293 11169900672953300775
21130935 74 18129662972734479306
21267235 1 18335986393547211168
212700 22 18409726292580246059
21315763 28 18409448081372245073
21895431 317 18261385607676916074
22149856 69 15697733539976503157
23569917 315 18341619187211103390
23569943 247 17620199737600080058
23576562 1 14201978898977681375
3178227 256 16128654162872576425
335352 9 18259706701403309074
3711267 37 8646490769295532255
4403749 210 10519979384214111253
44389302 135 18201718401529563738
4516262 110 7925625627540438886
4625314 4 18408039620320837029
5718773 13 18410575067499280956
5758199 1 10807932669853895125
59682541 35 12031786994468844901
6081469 158 17822006515036860773
636775 72 9727643800426170099
6691757 9 15410880857002337373
9831232 110 18341056194713288670
9937071 3 18413388739841721019
9962374 69 18410852187980436188

> <PUBCHEM_SHAPE_MULTIPOLES>
596.34
33.65
3.06
1.08
48.31
0.87
0
32.61
0.07
-3.41
-0.88
0.45
0.55
0.85

> <PUBCHEM_SHAPE_SELFOVERLAP>
1307.076

> <PUBCHEM_SHAPE_VOLUME>
321.4

> <PUBCHEM_COORDINATE_TYPE>
2
5
10

$$$$
