67161540
  -OEChem-10062121563D

 58 62  0     0  0  0  0  0  0999 V2000
    1.8002   -4.3367   -0.8899 Cl  0  0  0  0  0  0  0  0  0  0  0  0
   -4.5175    1.8656    0.4179 O   0  0  0  0  0  0  0  0  0  0  0  0
    5.5059   -0.2650    0.4675 N   0  0  0  0  0  0  0  0  0  0  0  0
    2.5909    1.5501   -0.8002 N   0  0  0  0  0  0  0  0  0  0  0  0
   -2.5902    3.2025    0.1366 N   0  0  0  0  0  0  0  0  0  0  0  0
   -4.4166   -0.9815    1.5334 N   0  0  0  0  0  0  0  0  0  0  0  0
   -5.0095   -0.9635   -0.6067 N   0  0  0  0  0  0  0  0  0  0  0  0
    2.9391    0.1462   -0.9073 C   0  0  0  0  0  0  0  0  0  0  0  0
    3.0397   -0.4800    0.4851 C   0  0  0  0  0  0  0  0  0  0  0  0
    4.2623   -0.0133   -1.6586 C   0  0  0  0  0  0  0  0  0  0  0  0
    4.2855   -0.0142    1.2455 C   0  0  0  0  0  0  0  0  0  0  0  0
    5.4656    0.4353   -0.8230 C   0  0  0  0  0  0  0  0  0  0  0  0
    6.6894    0.1333    1.2293 C   0  0  0  0  0  0  0  0  0  0  0  0
    1.3056    2.0014   -0.5671 C   0  0  0  0  0  0  0  0  0  0  0  0
    6.7920   -0.6441    2.5305 C   0  0  0  0  0  0  0  0  0  0  0  0
    0.2651    1.0776   -0.4215 C   0  0  0  0  0  0  0  0  0  0  0  0
   -1.0061    1.5675   -0.1886 C   0  0  0  0  0  0  0  0  0  0  0  0
    1.0634    3.3853   -0.4786 C   0  0  0  0  0  0  0  0  0  0  0  0
   -1.2359    2.9436   -0.1024 C   0  0  0  0  0  0  0  0  0  0  0  0
   -2.3056    0.9349    0.0102 C   0  0  0  0  0  0  0  0  0  0  0  0
   -0.2236    3.8725   -0.2429 C   0  0  0  0  0  0  0  0  0  0  0  0
   -3.3260    2.0160    0.2209 C   0  0  0  0  0  0  0  0  0  0  0  0
   -2.6072   -0.3649    0.0131 C   0  0  0  0  0  0  0  0  0  0  0  0
   -1.5124   -1.3514   -0.2114 C   0  0  0  0  0  0  0  0  0  0  0  0
   -4.0243   -0.7677    0.2412 C   0  0  0  0  0  0  0  0  0  0  0  0
   -1.2042   -1.7689   -1.5062 C   0  0  0  0  0  0  0  0  0  0  0  0
   -0.7958   -1.8569    0.8733 C   0  0  0  0  0  0  0  0  0  0  0  0
   -5.7360   -1.3364    1.5076 C   0  0  0  0  0  0  0  0  0  0  0  0
   -0.1797   -2.6919   -1.7162 C   0  0  0  0  0  0  0  0  0  0  0  0
    0.2286   -2.7799    0.6635 C   0  0  0  0  0  0  0  0  0  0  0  0
   -6.0794   -1.3183    0.1762 C   0  0  0  0  0  0  0  0  0  0  0  0
    0.5367   -3.1975   -0.6313 C   0  0  0  0  0  0  0  0  0  0  0  0
    2.1963   -0.3860   -1.5125 H   0  0  0  0  0  0  0  0  0  0  0  0
    3.0929   -1.5706    0.3751 H   0  0  0  0  0  0  0  0  0  0  0  0
    2.1575   -0.2708    1.0987 H   0  0  0  0  0  0  0  0  0  0  0  0
    4.2407    0.5531   -2.5977 H   0  0  0  0  0  0  0  0  0  0  0  0
    4.3943   -1.0696   -1.9287 H   0  0  0  0  0  0  0  0  0  0  0  0
    4.2867   -0.5792    2.1831 H   0  0  0  0  0  0  0  0  0  0  0  0
    4.1925    1.0488    1.5036 H   0  0  0  0  0  0  0  0  0  0  0  0
    5.4441    1.5231   -0.6794 H   0  0  0  0  0  0  0  0  0  0  0  0
    6.3740    0.2071   -1.3942 H   0  0  0  0  0  0  0  0  0  0  0  0
    3.3306    2.2418   -0.8464 H   0  0  0  0  0  0  0  0  0  0  0  0
    7.5870   -0.0860    0.6379 H   0  0  0  0  0  0  0  0  0  0  0  0
    6.6952    1.2100    1.4407 H   0  0  0  0  0  0  0  0  0  0  0  0
    6.0830   -0.2924    3.2862 H   0  0  0  0  0  0  0  0  0  0  0  0
    6.6447   -1.7184    2.3753 H   0  0  0  0  0  0  0  0  0  0  0  0
    7.7927   -0.5110    2.9568 H   0  0  0  0  0  0  0  0  0  0  0  0
    0.4640    0.0281   -0.4916 H   0  0  0  0  0  0  0  0  0  0  0  0
    1.8812    4.0935   -0.5934 H   0  0  0  0  0  0  0  0  0  0  0  0
   -0.4116    4.9378   -0.1744 H   0  0  0  0  0  0  0  0  0  0  0  0
   -2.9731    4.1355    0.2337 H   0  0  0  0  0  0  0  0  0  0  0  0
   -1.7538   -1.3837   -2.3616 H   0  0  0  0  0  0  0  0  0  0  0  0
   -1.0234   -1.5403    1.8883 H   0  0  0  0  0  0  0  0  0  0  0  0
   -3.8408   -0.8948    2.3607 H   0  0  0  0  0  0  0  0  0  0  0  0
   -6.2890   -1.5609    2.4080 H   0  0  0  0  0  0  0  0  0  0  0  0
    0.0500   -3.0075   -2.7306 H   0  0  0  0  0  0  0  0  0  0  0  0
    0.7796   -3.1640    1.5181 H   0  0  0  0  0  0  0  0  0  0  0  0
   -7.0426   -1.5424   -0.2583 H   0  0  0  0  0  0  0  0  0  0  0  0
  1 32  1  0  0  0  0
  2 22  2  0  0  0  0
  3 11  1  0  0  0  0
  3 12  1  0  0  0  0
  3 13  1  0  0  0  0
  4  8  1  0  0  0  0
  4 14  1  0  0  0  0
  4 42  1  0  0  0  0
  5 19  1  0  0  0  0
  5 22  1  0  0  0  0
  5 51  1  0  0  0  0
  6 25  1  0  0  0  0
  6 28  1  0  0  0  0
  6 54  1  0  0  0  0
  7 25  2  0  0  0  0
  7 31  1  0  0  0  0
  8  9  1  0  0  0  0
  8 10  1  0  0  0  0
  8 33  1  0  0  0  0
  9 11  1  0  0  0  0
  9 34  1  0  0  0  0
  9 35  1  0  0  0  0
 10 12  1  0  0  0  0
 10 36  1  0  0  0  0
 10 37  1  0  0  0  0
 11 38  1  0  0  0  0
 11 39  1  0  0  0  0
 12 40  1  0  0  0  0
 12 41  1  0  0  0  0
 13 15  1  0  0  0  0
 13 43  1  0  0  0  0
 13 44  1  0  0  0  0
 14 16  2  0  0  0  0
 14 18  1  0  0  0  0
 15 45  1  0  0  0  0
 15 46  1  0  0  0  0
 15 47  1  0  0  0  0
 16 17  1  0  0  0  0
 16 48  1  0  0  0  0
 17 19  2  0  0  0  0
 17 20  1  0  0  0  0
 18 21  2  0  0  0  0
 18 49  1  0  0  0  0
 19 21  1  0  0  0  0
 20 22  1  0  0  0  0
 20 23  2  3  0  0  0
 21 50  1  0  0  0  0
 23 24  1  0  0  0  0
 23 25  1  0  0  0  0
 24 26  2  0  0  0  0
 24 27  1  0  0  0  0
 26 29  1  0  0  0  0
 26 52  1  0  0  0  0
 27 30  2  0  0  0  0
 27 53  1  0  0  0  0
 28 31  2  0  0  0  0
 28 55  1  0  0  0  0
 29 32  2  0  0  0  0
 29 56  1  0  0  0  0
 30 32  1  0  0  0  0
 30 57  1  0  0  0  0
 31 58  1  0  0  0  0
M  END
> <PUBCHEM_COMPOUND_CID>
67161540

> <PUBCHEM_CONFORMER_RMSD>
0.8

> <PUBCHEM_CONFORMER_DIVERSEORDER>
1
17
15
16
9
5
2
20
8
18
14
13
6
3
12
11
7
19
4
10

> <PUBCHEM_MMFF94_PARTIAL_CHARGES>
41
1 -0.18
11 0.27
12 0.27
13 0.27
14 0.1
16 -0.15
17 0.03
18 -0.15
19 0.12
2 -0.57
20 -0.01
21 -0.15
22 0.62
23 0.02
24 0.03
25 0.14
26 -0.15
27 -0.15
28 -0.3
29 -0.15
3 -0.81
30 -0.15
31 0.08
32 0.18
4 -0.87
42 0.4
48 0.15
49 0.15
5 -0.55
50 0.15
51 0.37
52 0.15
53 0.15
54 0.27
55 0.15
56 0.15
57 0.15
58 0.15
6 0.03
7 -0.57
8 0.37

> <PUBCHEM_EFFECTIVE_ROTOR_COUNT>
6.4

> <PUBCHEM_PHARMACOPHORE_FEATURES>
12
1 2 acceptor
1 3 cation
1 4 cation
1 4 donor
1 5 donor
1 6 donor
3 6 7 25 cation
5 5 17 19 20 22 rings
5 6 7 25 28 31 rings
6 14 16 17 18 19 21 rings
6 24 26 27 29 30 32 rings
6 3 8 9 10 11 12 rings

> <PUBCHEM_HEAVY_ATOM_COUNT>
32

> <PUBCHEM_ATOM_DEF_STEREO_COUNT>
0

> <PUBCHEM_ATOM_UDEF_STEREO_COUNT>
0

> <PUBCHEM_BOND_DEF_STEREO_COUNT>
0

> <PUBCHEM_BOND_UDEF_STEREO_COUNT>
1

> <PUBCHEM_ISOTOPIC_ATOM_COUNT>
0

> <PUBCHEM_COMPONENT_COUNT>
1

> <PUBCHEM_CACTVS_TAUTO_COUNT>
11

> <PUBCHEM_CONFORMER_ID>
0400CDC400000001

> <PUBCHEM_MMFF94_ENERGY>
101.7219

> <PUBCHEM_FEATURE_SELFOVERLAP>
60.987

> <PUBCHEM_SHAPE_FINGERPRINT>
10670039 82 18263377923320471694
10939801 23 18336546140277910584
1100329 8 18266462203280456511
11445158 3 18041563670918048309
11513181 2 18057322791060197903
12422481 6 18122611778906992882
12553582 1 18410854408299212996
12788726 201 18337403707248831652
131258 38 17388250406393473826
13140716 1 18124884705506128855
14394314 77 18335420132332715224
14466204 15 18410577270880924141
14725015 67 18335415798794421065
15328829 1 17822016441613649948
15403338 16 17386271134691274074
16112460 7 18200326544394142544
16728300 4 17969204677819830338
19319366 153 17677898010310126762
19591789 44 18267313204248409429
20028762 73 18129386058818592743
208703 8 17532071849229457778
20905425 154 18125170337636525775
21033648 29 17774999077013248808
21796203 349 18048069468366949288
22113638 7 18267584782939858510
23559900 14 18052267193914607172
25019877 29 17632574989408506334
255183 313 18059562620805179438
3178227 256 18265067979987489131
3383291 50 18335984250564558106
469060 322 18339379499399651241
5265222 85 18341899606785466862
56638632 33 18128239281091665632
59755656 215 18410301294142594463
6138700 20 18410583885162065983
9896288 288 18196648485316547008
9961470 85 17834951980222297664

> <PUBCHEM_SHAPE_MULTIPOLES>
629.64
13.01
4.54
1.51
8.38
0.3
0.38
-2.41
7.21
-1.33
-1.3
1.74
-0.79
-0.06

> <PUBCHEM_SHAPE_SELFOVERLAP>
1377.488

> <PUBCHEM_SHAPE_VOLUME>
342.8

> <PUBCHEM_COORDINATE_TYPE>
2
5
10

$$$$
