24905205
  -OEChem-10052115143D

 43 47  0     0  0  0  0  0  0999 V2000
   -2.4241   -0.2322    0.0447 N   0  0  0  0  0  0  0  0  0  0  0  0
   -1.2290   -0.8247   -0.1356 N   0  0  0  0  0  0  0  0  0  0  0  0
   -3.3740    1.9809    0.2944 N   0  0  0  0  0  0  0  0  0  0  0  0
   -1.6608    3.7145    0.1938 N   0  0  0  0  0  0  0  0  0  0  0  0
    0.6544    3.2234   -0.1164 N   0  0  0  0  0  0  0  0  0  0  0  0
    5.0962   -0.7448   -0.9314 N   0  0  0  0  0  0  0  0  0  0  0  0
   -3.6708   -1.0826    0.1428 C   0  0  0  0  0  0  0  0  0  0  0  0
   -3.6654   -2.0941    1.3078 C   0  0  0  0  0  0  0  0  0  0  0  0
   -3.9195   -1.9138   -1.1286 C   0  0  0  0  0  0  0  0  0  0  0  0
   -3.7514   -3.4720    0.6610 C   0  0  0  0  0  0  0  0  0  0  0  0
   -4.5169   -3.2191   -0.6258 C   0  0  0  0  0  0  0  0  0  0  0  0
   -2.3529    1.1272    0.1191 C   0  0  0  0  0  0  0  0  0  0  0  0
   -1.0142    1.4478   -0.0225 C   0  0  0  0  0  0  0  0  0  0  0  0
   -0.3746    0.2036   -0.1757 C   0  0  0  0  0  0  0  0  0  0  0  0
    1.0279   -0.0410   -0.3595 C   0  0  0  0  0  0  0  0  0  0  0  0
   -0.6791    2.7971    0.0195 C   0  0  0  0  0  0  0  0  0  0  0  0
    1.8558   -0.2319    0.7430 C   0  0  0  0  0  0  0  0  0  0  0  0
    1.5678   -0.0873   -1.6388 C   0  0  0  0  0  0  0  0  0  0  0  0
   -2.9290    3.2559    0.3187 C   0  0  0  0  0  0  0  0  0  0  0  0
    3.2295   -0.4703    0.5677 C   0  0  0  0  0  0  0  0  0  0  0  0
    2.9336   -0.3243   -1.8127 C   0  0  0  0  0  0  0  0  0  0  0  0
    3.7845   -0.5187   -0.7282 C   0  0  0  0  0  0  0  0  0  0  0  0
    4.0857   -0.6660    1.6598 C   0  0  0  0  0  0  0  0  0  0  0  0
    5.4377   -0.8991    1.4535 C   0  0  0  0  0  0  0  0  0  0  0  0
    5.8885   -0.9286    0.1495 C   0  0  0  0  0  0  0  0  0  0  0  0
   -4.4930   -0.3717    0.2897 H   0  0  0  0  0  0  0  0  0  0  0  0
   -4.5547   -1.9293    1.9287 H   0  0  0  0  0  0  0  0  0  0  0  0
   -2.7906   -2.0074    1.9600 H   0  0  0  0  0  0  0  0  0  0  0  0
   -2.9890   -2.1180   -1.6711 H   0  0  0  0  0  0  0  0  0  0  0  0
   -4.5938   -1.3997   -1.8212 H   0  0  0  0  0  0  0  0  0  0  0  0
   -4.2476   -4.2027    1.3061 H   0  0  0  0  0  0  0  0  0  0  0  0
   -2.7447   -3.8431    0.4351 H   0  0  0  0  0  0  0  0  0  0  0  0
   -4.4016   -4.0334   -1.3467 H   0  0  0  0  0  0  0  0  0  0  0  0
   -5.5854   -3.0926   -0.4159 H   0  0  0  0  0  0  0  0  0  0  0  0
    1.4383   -0.1960    1.7484 H   0  0  0  0  0  0  0  0  0  0  0  0
    0.9422    0.0594   -2.5162 H   0  0  0  0  0  0  0  0  0  0  0  0
   -3.6899    4.0165    0.4568 H   0  0  0  0  0  0  0  0  0  0  0  0
    3.3321   -0.3555   -2.8252 H   0  0  0  0  0  0  0  0  0  0  0  0
    1.4069    2.5635   -0.2469 H   0  0  0  0  0  0  0  0  0  0  0  0
    0.8541    4.2141   -0.0799 H   0  0  0  0  0  0  0  0  0  0  0  0
    3.7035   -0.6376    2.6776 H   0  0  0  0  0  0  0  0  0  0  0  0
    6.1138   -1.0524    2.2864 H   0  0  0  0  0  0  0  0  0  0  0  0
    6.9355   -1.1067   -0.0729 H   0  0  0  0  0  0  0  0  0  0  0  0
  1  2  1  0  0  0  0
  1  7  1  0  0  0  0
  1 12  1  0  0  0  0
  2 14  2  0  0  0  0
  3 12  2  0  0  0  0
  3 19  1  0  0  0  0
  4 16  1  0  0  0  0
  4 19  2  0  0  0  0
  5 16  1  0  0  0  0
  5 39  1  0  0  0  0
  5 40  1  0  0  0  0
  6 22  1  0  0  0  0
  6 25  2  0  0  0  0
  7  8  1  0  0  0  0
  7  9  1  0  0  0  0
  7 26  1  0  0  0  0
  8 10  1  0  0  0  0
  8 27  1  0  0  0  0
  8 28  1  0  0  0  0
  9 11  1  0  0  0  0
  9 29  1  0  0  0  0
  9 30  1  0  0  0  0
 10 11  1  0  0  0  0
 10 31  1  0  0  0  0
 10 32  1  0  0  0  0
 11 33  1  0  0  0  0
 11 34  1  0  0  0  0
 12 13  1  0  0  0  0
 13 14  1  0  0  0  0
 13 16  2  0  0  0  0
 14 15  1  0  0  0  0
 15 17  2  0  0  0  0
 15 18  1  0  0  0  0
 17 20  1  0  0  0  0
 17 35  1  0  0  0  0
 18 21  2  0  0  0  0
 18 36  1  0  0  0  0
 19 37  1  0  0  0  0
 20 22  2  0  0  0  0
 20 23  1  0  0  0  0
 21 22  1  0  0  0  0
 21 38  1  0  0  0  0
 23 24  2  0  0  0  0
 23 41  1  0  0  0  0
 24 25  1  0  0  0  0
 24 42  1  0  0  0  0
 25 43  1  0  0  0  0
M  END
> <PUBCHEM_COMPOUND_CID>
24905205

> <PUBCHEM_CONFORMER_RMSD>
0.6

> <PUBCHEM_CONFORMER_DIVERSEORDER>
1
4
12
15
7
10
16
8
11
9
3
6
13
2
5
14

> <PUBCHEM_MMFF94_PARTIAL_CHARGES>
28
1 0.31
12 0.11
14 0.23
15 0.05
16 0.41
17 -0.15
18 -0.15
19 0.47
2 -0.71
21 -0.15
22 0.31
23 -0.15
24 -0.15
25 0.16
3 -0.57
35 0.15
36 0.15
37 0.15
38 0.15
39 0.4
4 -0.62
40 0.4
41 0.15
42 0.15
43 0.15
5 -0.9
6 -0.62
7 0.26

> <PUBCHEM_EFFECTIVE_ROTOR_COUNT>
3

> <PUBCHEM_PHARMACOPHORE_FEATURES>
11
1 2 acceptor
1 5 cation
1 5 donor
1 6 acceptor
3 1 3 12 cation
3 3 4 19 cation
5 1 2 12 13 14 rings
5 7 8 9 10 11 rings
6 15 17 18 20 21 22 rings
6 3 4 12 13 16 19 rings
6 6 20 22 23 24 25 rings

> <PUBCHEM_HEAVY_ATOM_COUNT>
25

> <PUBCHEM_ATOM_DEF_STEREO_COUNT>
0

> <PUBCHEM_ATOM_UDEF_STEREO_COUNT>
0

> <PUBCHEM_BOND_DEF_STEREO_COUNT>
0

> <PUBCHEM_BOND_UDEF_STEREO_COUNT>
0

> <PUBCHEM_ISOTOPIC_ATOM_COUNT>
0

> <PUBCHEM_COMPONENT_COUNT>
1

> <PUBCHEM_CACTVS_TAUTO_COUNT>
5

> <PUBCHEM_CONFORMER_ID>
017C05F500000001

> <PUBCHEM_MMFF94_ENERGY>
67.5929

> <PUBCHEM_FEATURE_SELFOVERLAP>
56.133

> <PUBCHEM_SHAPE_FINGERPRINT>
10319926 262 18198610052957746378
10411042 1 18339642373242280247
1100329 8 18410295805227650681
11056379 131 18339085895424577574
11265709 11 18409729608062194915
11370993 144 16844746226209669675
11545043 162 18202283559723357354
12035758 1 18271262534330949577
12236239 1 17604720958436595788
12363563 72 18338803441396088727
12553582 1 18338249270482531427
12788726 201 18262251022259396186
13140716 1 18341056302283013193
13583140 156 17845360077792359750
13782708 43 17846786174771088830
14178342 30 18336830775580326966
14565420 104 17192930592571970673
14844126 61 18408884019064265339
15042514 8 18410863127219837129
15099037 37 18343581836903596390
15131766 46 15939266631073900261
15250474 111 18116138988182346794
15484559 13 13777447206873436518
15842332 3 17822593632686932196
16992727 255 18044073698011002005
17138139 8 17532644835730971010
17349148 13 17894634764163102682
1813 80 18200603630119731807
18222031 100 18271242853899495791
18927931 339 18413674607968679847
200 152 17458061573236369254
20511986 3 17459182997930052012
20775438 99 16822761852275483035
21033648 29 17345453935011224272
21065201 7 18270685251702422006
21304303 282 17902767710124438485
2132832 1 18187085087200667492
21728266 224 18334569127464615194
23366157 5 17900549179011558381
23402539 116 18410852157446296846
23557571 272 18201444623175724508
23559900 14 18264477550516796593
314173 85 18342460378336192795
3178227 256 18263940860927678249
463206 1 18116993493105596043
5104073 3 18342173367404958376
57527293 21 18059860605329909050
5924683 9 18410005507643984138
613672 6 18341611581198412983
6673363 416 18268445693237302916
7471813 234 18335420235263360476
7970288 3 18266740362474719743
9981440 41 17759246189592696225

> <PUBCHEM_SHAPE_MULTIPOLES>
484.6
11.22
3.92
1.32
10.06
2.56
-0.14
-9.36
1.52
-7.14
0.5
1.18
-0.59
-0.53

> <PUBCHEM_SHAPE_SELFOVERLAP>
1091.26

> <PUBCHEM_SHAPE_VOLUME>
253.4

> <PUBCHEM_COORDINATE_TYPE>
2
5
10

$$$$
