15323455
  -OEChem-10062121543D

 23 24  0     0  0  0  0  0  0999 V2000
    0.8995   -1.5680    0.0040 N   0  0  0  0  0  0  0  0  0  0  0  0
    2.4364    0.7353   -0.0007 N   0  0  0  0  0  0  0  0  0  0  0  0
    2.2460   -1.6538    0.0031 N   0  0  0  0  0  0  0  0  0  0  0  0
    0.1122    3.1832   -0.0018 N   0  0  0  0  0  0  0  0  0  0  0  0
   -1.1149   -0.3510    0.0010 C   0  0  0  0  0  0  0  0  0  0  0  0
    0.3320   -0.3499    0.0028 C   0  0  0  0  0  0  0  0  0  0  0  0
   -1.8111   -0.3550   -1.2077 C   0  0  0  0  0  0  0  0  0  0  0  0
   -1.8137   -0.3482    1.2082 C   0  0  0  0  0  0  0  0  0  0  0  0
    1.0957    0.7863    0.0004 C   0  0  0  0  0  0  0  0  0  0  0  0
   -3.2060   -0.3562   -1.2094 C   0  0  0  0  0  0  0  0  0  0  0  0
   -3.2086   -0.3495    1.2067 C   0  0  0  0  0  0  0  0  0  0  0  0
    2.9490   -0.5041    0.0007 C   0  0  0  0  0  0  0  0  0  0  0  0
   -3.9047   -0.3534   -0.0022 C   0  0  0  0  0  0  0  0  0  0  0  0
    4.4341   -0.6222   -0.0046 C   0  0  0  0  0  0  0  0  0  0  0  0
    0.5541    2.1064   -0.0008 C   0  0  0  0  0  0  0  0  0  0  0  0
   -1.2814   -0.3574   -2.1574 H   0  0  0  0  0  0  0  0  0  0  0  0
   -1.2862   -0.3454    2.1592 H   0  0  0  0  0  0  0  0  0  0  0  0
   -3.7481   -0.3592   -2.1505 H   0  0  0  0  0  0  0  0  0  0  0  0
   -3.7529   -0.3474    2.1465 H   0  0  0  0  0  0  0  0  0  0  0  0
   -4.9908   -0.3544   -0.0033 H   0  0  0  0  0  0  0  0  0  0  0  0
    4.7537   -1.5158    0.5405 H   0  0  0  0  0  0  0  0  0  0  0  0
    4.7955   -0.6915   -1.0348 H   0  0  0  0  0  0  0  0  0  0  0  0
    4.8962    0.2484    0.4711 H   0  0  0  0  0  0  0  0  0  0  0  0
  1  3  2  0  0  0  0
  1  6  1  0  0  0  0
  2  9  1  0  0  0  0
  2 12  2  0  0  0  0
  3 12  1  0  0  0  0
  4 15  3  0  0  0  0
  5  6  1  0  0  0  0
  5  7  2  0  0  0  0
  5  8  1  0  0  0  0
  6  9  2  0  0  0  0
  7 10  1  0  0  0  0
  7 16  1  0  0  0  0
  8 11  2  0  0  0  0
  8 17  1  0  0  0  0
  9 15  1  0  0  0  0
 10 13  2  0  0  0  0
 10 18  1  0  0  0  0
 11 13  1  0  0  0  0
 11 19  1  0  0  0  0
 12 14  1  0  0  0  0
 13 20  1  0  0  0  0
 14 21  1  0  0  0  0
 14 22  1  0  0  0  0
 14 23  1  0  0  0  0
M  END
> <PUBCHEM_COMPOUND_CID>
15323455

> <PUBCHEM_CONFORMER_RMSD>
0.4

> <PUBCHEM_CONFORMER_DIVERSEORDER>
1
2
3

> <PUBCHEM_MMFF94_PARTIAL_CHARGES>
19
1 -0.31
10 -0.15
11 -0.15
12 0.48
13 -0.15
14 0.14
15 0.48
16 0.15
17 0.15
18 0.15
19 0.15
2 -0.62
20 0.15
3 -0.31
4 -0.56
6 0.31
7 -0.15
8 -0.15
9 0.38

> <PUBCHEM_EFFECTIVE_ROTOR_COUNT>
1

> <PUBCHEM_PHARMACOPHORE_FEATURES>
4
1 4 acceptor
3 2 3 12 cation
6 1 2 3 6 9 12 rings
6 5 7 8 10 11 13 rings

> <PUBCHEM_HEAVY_ATOM_COUNT>
15

> <PUBCHEM_ATOM_DEF_STEREO_COUNT>
0

> <PUBCHEM_ATOM_UDEF_STEREO_COUNT>
0

> <PUBCHEM_BOND_DEF_STEREO_COUNT>
0

> <PUBCHEM_BOND_UDEF_STEREO_COUNT>
0

> <PUBCHEM_ISOTOPIC_ATOM_COUNT>
0

> <PUBCHEM_COMPONENT_COUNT>
1

> <PUBCHEM_CACTVS_TAUTO_COUNT>
1

> <PUBCHEM_CONFORMER_ID>
00E9D13F00000001

> <PUBCHEM_MMFF94_ENERGY>
41.287

> <PUBCHEM_FEATURE_SELFOVERLAP>
20.297

> <PUBCHEM_SHAPE_FINGERPRINT>
10219947 1 18412546526392140454
104564 63 18268153058790253284
10465860 250 17967805042492983922
11471102 20 18408882966348598580
11578080 2 17271971386456856489
12032990 46 18408609149573091018
12236239 1 17703791427112604779
124424 183 17967527978120800915
14993402 34 18201717366304619894
15219456 202 17822012068097271253
15375462 478 17988651778697657273
16945 1 18410574028116954851
17357990 137 17487087623953675705
17844478 74 17894353271921600677
200 152 18272364291809895999
20201158 50 18113900446367688099
20361792 2 18342735212971301413
20671657 1 18124318460774883917
21041028 32 18410586080191476105
21061003 4 18334863830935030393
21130352 189 18408602590962864241
21339142 126 18270957930295706614
21639500 275 18194676188646088405
221490 88 18120374521314455755
23175994 123 18260835881758012508
232386 152 16558745771545205095
23402539 116 18343577421930618510
23559900 14 16950556641704407722
23598291 2 17988076819836400053
2748010 2 18267860584412600436
3286 77 18189340228899542611
568465 68 17895774965999590683
63268167 104 18341330110204763673
6992083 37 17988926686547962111
74978 22 18268993261804209743
77492 1 17703793643236478311
81228 2 18119533132978826304
84936 182 17628914831190279857

> <PUBCHEM_SHAPE_MULTIPOLES>
288.77
6.47
1.92
1.01
1.24
1.97
0
-2.37
-0.01
1.02
0
-1.04
-0.13
0

> <PUBCHEM_SHAPE_SELFOVERLAP>
624.14

> <PUBCHEM_SHAPE_VOLUME>
154.1

> <PUBCHEM_COORDINATE_TYPE>
2
5
10

$$$$
