135589980
  -OEChem-10062122013D

 62 67  0     0  0  0  0  0  0999 V2000
   -9.7449    3.9318    0.5410 O   0  0  0  0  0  0  0  0  0  0  0  0
   -6.1671   -1.5601   -0.9824 O   0  0  0  0  0  0  0  0  0  0  0  0
   10.0322    3.4902   -0.0769 O   0  0  0  0  0  0  0  0  0  0  0  0
   -5.3769    0.4602   -0.1629 N   0  0  0  0  0  0  0  0  0  0  0  0
    0.8028   -3.9162    0.3122 N   0  0  0  0  0  0  0  0  0  0  0  0
    2.0901   -3.4847    0.3427 N   0  0  0  0  0  0  0  0  0  0  0  0
   -6.6251    1.1784   -0.2529 C   0  0  0  0  0  0  0  0  0  0  0  0
   -7.4468    0.9996    1.0270 C   0  0  0  0  0  0  0  0  0  0  0  0
   -6.3721    2.6582   -0.5526 C   0  0  0  0  0  0  0  0  0  0  0  0
   -8.4909    3.2724    0.6781 C   0  0  0  0  0  0  0  0  0  0  0  0
   -8.7462    1.7963    0.9739 C   0  0  0  0  0  0  0  0  0  0  0  0
   -7.6737    3.4518   -0.6002 C   0  0  0  0  0  0  0  0  0  0  0  0
   -1.5366   -1.2417   -0.2288 C   0  0  0  0  0  0  0  0  0  0  0  0
   -5.2533   -0.8681   -0.5414 C   0  0  0  0  0  0  0  0  0  0  0  0
   -0.1667   -0.5353   -0.2323 C   0  0  0  0  0  0  0  0  0  0  0  0
    0.6688   -1.7473   -0.0029 C   0  0  0  0  0  0  0  0  0  0  0  0
   -1.4453   -2.6474   -0.0251 C   0  0  0  0  0  0  0  0  0  0  0  0
   -0.0556   -2.9009    0.1081 C   0  0  0  0  0  0  0  0  0  0  0  0
   -3.9075   -1.4712   -0.3627 C   0  0  0  0  0  0  0  0  0  0  0  0
   -2.7752   -0.6493   -0.3986 C   0  0  0  0  0  0  0  0  0  0  0  0
    1.9941   -2.1555    0.1486 C   0  0  0  0  0  0  0  0  0  0  0  0
   -2.5495   -3.4688    0.0127 C   0  0  0  0  0  0  0  0  0  0  0  0
   -3.7956   -2.8620   -0.1599 C   0  0  0  0  0  0  0  0  0  0  0  0
    3.1712   -1.3295    0.1158 C   0  0  0  0  0  0  0  0  0  0  0  0
    3.1872   -0.1690   -0.6580 C   0  0  0  0  0  0  0  0  0  0  0  0
    4.2963   -1.6887    0.8578 C   0  0  0  0  0  0  0  0  0  0  0  0
    5.4536    0.2732    0.0525 C   0  0  0  0  0  0  0  0  0  0  0  0
    4.3284    0.6322   -0.6896 C   0  0  0  0  0  0  0  0  0  0  0  0
    5.4375   -0.8874    0.8261 C   0  0  0  0  0  0  0  0  0  0  0  0
    6.6367    1.1049    0.0208 C   0  0  0  0  0  0  0  0  0  0  0  0
    6.5176    2.4802   -0.1802 C   0  0  0  0  0  0  0  0  0  0  0  0
    7.8969    0.5314    0.1896 C   0  0  0  0  0  0  0  0  0  0  0  0
    7.6587    3.2817   -0.2127 C   0  0  0  0  0  0  0  0  0  0  0  0
    9.0380    1.3328    0.1570 C   0  0  0  0  0  0  0  0  0  0  0  0
    8.9189    2.7079   -0.0440 C   0  0  0  0  0  0  0  0  0  0  0  0
   -7.1970    0.7528   -1.0881 H   0  0  0  0  0  0  0  0  0  0  0  0
   -7.6761   -0.0613    1.1846 H   0  0  0  0  0  0  0  0  0  0  0  0
   -6.8577    1.3207    1.8961 H   0  0  0  0  0  0  0  0  0  0  0  0
   -5.8438    2.7622   -1.5083 H   0  0  0  0  0  0  0  0  0  0  0  0
   -5.7136    3.0885    0.2134 H   0  0  0  0  0  0  0  0  0  0  0  0
   -7.9642    3.7284    1.5249 H   0  0  0  0  0  0  0  0  0  0  0  0
   -9.4114    1.3744    0.2090 H   0  0  0  0  0  0  0  0  0  0  0  0
   -9.2869    1.6970    1.9229 H   0  0  0  0  0  0  0  0  0  0  0  0
   -7.4584    4.5156   -0.7570 H   0  0  0  0  0  0  0  0  0  0  0  0
   -8.2702    3.1395   -1.4674 H   0  0  0  0  0  0  0  0  0  0  0  0
   -4.6078    0.9340    0.2990 H   0  0  0  0  0  0  0  0  0  0  0  0
    0.0178   -0.0742   -1.2050 H   0  0  0  0  0  0  0  0  0  0  0  0
   -0.0935    0.1805    0.5900 H   0  0  0  0  0  0  0  0  0  0  0  0
   -9.5642    4.8694    0.3571 H   0  0  0  0  0  0  0  0  0  0  0  0
   -2.8258    0.4182   -0.5819 H   0  0  0  0  0  0  0  0  0  0  0  0
   -2.4667   -4.5379    0.1697 H   0  0  0  0  0  0  0  0  0  0  0  0
   -4.6846   -3.4881   -0.1291 H   0  0  0  0  0  0  0  0  0  0  0  0
    0.6179   -4.9041    0.4387 H   0  0  0  0  0  0  0  0  0  0  0  0
    2.3416    0.1271   -1.2709 H   0  0  0  0  0  0  0  0  0  0  0  0
    4.3080   -2.5792    1.4817 H   0  0  0  0  0  0  0  0  0  0  0  0
    4.3074    1.5073   -1.3335 H   0  0  0  0  0  0  0  0  0  0  0  0
    6.2777   -1.1894    1.4454 H   0  0  0  0  0  0  0  0  0  0  0  0
    5.5562    2.9752   -0.2860 H   0  0  0  0  0  0  0  0  0  0  0  0
    8.0410   -0.5379    0.3179 H   0  0  0  0  0  0  0  0  0  0  0  0
    7.5598    4.3533   -0.3633 H   0  0  0  0  0  0  0  0  0  0  0  0
   10.0148    0.8733    0.2827 H   0  0  0  0  0  0  0  0  0  0  0  0
   10.8155    2.9293    0.0569 H   0  0  0  0  0  0  0  0  0  0  0  0
  1 10  1  0  0  0  0
  1 49  1  0  0  0  0
  2 14  2  0  0  0  0
  3 35  1  0  0  0  0
  3 62  1  0  0  0  0
  4  7  1  0  0  0  0
  4 14  1  0  0  0  0
  4 46  1  0  0  0  0
  5  6  1  0  0  0  0
  5 18  1  0  0  0  0
  5 53  1  0  0  0  0
  6 21  2  0  0  0  0
  7  8  1  0  0  0  0
  7  9  1  0  0  0  0
  7 36  1  0  0  0  0
  8 11  1  0  0  0  0
  8 37  1  0  0  0  0
  8 38  1  0  0  0  0
  9 12  1  0  0  0  0
  9 39  1  0  0  0  0
  9 40  1  0  0  0  0
 10 11  1  0  0  0  0
 10 12  1  0  0  0  0
 10 41  1  0  0  0  0
 11 42  1  0  0  0  0
 11 43  1  0  0  0  0
 12 44  1  0  0  0  0
 12 45  1  0  0  0  0
 13 15  1  0  0  0  0
 13 17  2  0  0  0  0
 13 20  1  0  0  0  0
 14 19  1  0  0  0  0
 15 16  1  0  0  0  0
 15 47  1  0  0  0  0
 15 48  1  0  0  0  0
 16 18  2  0  0  0  0
 16 21  1  0  0  0  0
 17 18  1  0  0  0  0
 17 22  1  0  0  0  0
 19 20  2  0  0  0  0
 19 23  1  0  0  0  0
 20 50  1  0  0  0  0
 21 24  1  0  0  0  0
 22 23  2  0  0  0  0
 22 51  1  0  0  0  0
 23 52  1  0  0  0  0
 24 25  2  0  0  0  0
 24 26  1  0  0  0  0
 25 28  1  0  0  0  0
 25 54  1  0  0  0  0
 26 29  2  0  0  0  0
 26 55  1  0  0  0  0
 27 28  2  0  0  0  0
 27 29  1  0  0  0  0
 27 30  1  0  0  0  0
 28 56  1  0  0  0  0
 29 57  1  0  0  0  0
 30 31  2  0  0  0  0
 30 32  1  0  0  0  0
 31 33  1  0  0  0  0
 31 58  1  0  0  0  0
 32 34  2  0  0  0  0
 32 59  1  0  0  0  0
 33 35  2  0  0  0  0
 33 60  1  0  0  0  0
 34 35  1  0  0  0  0
 34 61  1  0  0  0  0
M  END
> <PUBCHEM_COMPOUND_CID>
135589980

> <PUBCHEM_CONFORMER_RMSD>
1

> <PUBCHEM_CONFORMER_DIVERSEORDER>
1
7
5
2
4
8
6
3

> <PUBCHEM_MMFF94_PARTIAL_CHARGES>
44
1 -0.68
10 0.28
13 -0.14
14 0.54
15 0.32
16 -0.18
17 0.05
18 -0.2
19 0.09
2 -0.57
20 -0.15
21 0.23
22 -0.15
23 -0.15
24 0.05
25 -0.15
26 -0.15
28 -0.15
29 -0.15
3 -0.53
31 -0.15
32 -0.15
33 -0.15
34 -0.15
35 0.08
4 -0.73
46 0.37
49 0.4
5 0.3
50 0.15
51 0.15
52 0.15
53 0.27
54 0.15
55 0.15
56 0.15
57 0.15
58 0.15
59 0.15
6 -0.71
60 0.15
61 0.15
62 0.45
7 0.3

> <PUBCHEM_EFFECTIVE_ROTOR_COUNT>
6.4

> <PUBCHEM_PHARMACOPHORE_FEATURES>
13
1 1 acceptor
1 1 donor
1 2 acceptor
1 3 donor
1 4 donor
1 5 donor
1 6 acceptor
5 13 15 16 17 18 rings
5 5 6 16 18 21 rings
6 13 17 19 20 22 23 rings
6 24 25 26 27 28 29 rings
6 30 31 32 33 34 35 rings
6 7 8 9 10 11 12 rings

> <PUBCHEM_HEAVY_ATOM_COUNT>
35

> <PUBCHEM_ATOM_DEF_STEREO_COUNT>
0

> <PUBCHEM_ATOM_UDEF_STEREO_COUNT>
0

> <PUBCHEM_BOND_DEF_STEREO_COUNT>
0

> <PUBCHEM_BOND_UDEF_STEREO_COUNT>
0

> <PUBCHEM_ISOTOPIC_ATOM_COUNT>
0

> <PUBCHEM_COMPONENT_COUNT>
1

> <PUBCHEM_CACTVS_TAUTO_COUNT>
-1

> <PUBCHEM_CONFORMER_ID>
0814F05C00000001

> <PUBCHEM_MMFF94_ENERGY>
114.1236

> <PUBCHEM_FEATURE_SELFOVERLAP>
66.314

> <PUBCHEM_SHAPE_FINGERPRINT>
10 15 18113904806719394467
10190206 1 17775574126132519817
10280341 67 18200017552131717768
10411042 1 17327178161425045762
10533779 1 18409159996551915341
10625338 131 18409721885858937104
10930396 42 16805041823056173957
10939801 23 18337671919624923521
11181472 205 18410854335796685922
11408170 132 18412270524169071294
11409948 8 18261406551218339289
11421887 21 18130232549111217433
11421887 45 18341315782448286824
11578821 258 18194118749859310396
12013929 29 18197777709037375189
12133447 93 18338527421491919148
12522641 68 18131069346649054095
12539765 74 18272654532799547486
12559416 138 8718552657910483441
12645989 146 9943807806839982799
131240 88 18409456877270004553
13248334 5 18122623855849367110
13726171 33 18334572464443156234
13782708 43 11241971477661699887
13944108 23 18413388710024441040
14344974 204 8286209361177364305
14359421 15 11887677251668729437
14394314 77 18335700567742399148
14617042 71 18341335492595832049
15152005 290 18411418418925121711
15152005 77 11314303962470693953
15198563 99 14979686463715015419
15289351 153 18337662110125230938
15347591 1 18410292510297424082
15439362 3 18412547587730189222
15685185 35 18413390926307206657
1577012 14 18410851053592469143
15840311 113 18264775355423520583
16067689 68 11747206915079860989
16126227 98 18411138022586134237
16989713 51 17272283832232411630
16992727 255 18412265068796025624
16994733 274 18335696161036738986
19053607 189 18341600538979673026
19302320 297 18114187436183023628
19303781 99 8502368889222052369
19304671 126 18130515127994068166
19309040 13 18272364252997624263
19315958 150 18340492174880402503
20165401 70 8430302533424778033
2026 5 9007052462183017817
20609170 114 17676776462006859595
20691028 202 18337949121119613772
20721686 146 18343866606183851972
20766409 102 18410571813216908861
21057603 308 18059852806356090161
21298829 104 18408604777159143012
21585482 111 18408602535065447397
21772523 7 16199572723954397968
21781055 127 17822578309488591460
22002106 203 9151170927049590044
22899556 10 18187651250771607675
23516275 100 18265051337137917269
23522609 53 17242462848905725678
23523788 1 13046211746413614906
24771293 8 18335419092738730525
25242607 90 8286200530892980012
255183 451 10519979361736805266
3633792 109 18343306955794208234
3711267 37 18342469114395021577
3918712 181 18413106143414575848
393628 194 18336543923262416237
406291 66 8646763396475576001
4169191 19 18336255791523778679
4366758 26 18190183575915112644
4403749 210 18335143069368423539
44389302 135 8790068240857395708
44802255 64 17418094368738276239
4516262 110 18335975369236360519
57303763 176 18411418407285080952
5776283 40 18272086098299392401
5937810 71 18272090504856215617
6201320 221 15625399905171544972
6201320 82 18341909479734320409
6204607 403 17986118406184454217
6289498 60 18262230028385693241
636775 72 18410855490673331677
6673363 416 18200028586197872567
6691757 9 15719672160306050267
6698420 124 18333454226753311954
99344 41 18409166627748889428
9962374 69 10519987076267773166
9980921 7 18187357732805838085

> <PUBCHEM_SHAPE_MULTIPOLES>
687.73
33.69
5.38
0.83
2.41
1.03
0.05
53.3
3.48
-3.85
0.26
-0.67
0.1
-2

> <PUBCHEM_SHAPE_SELFOVERLAP>
1542.46

> <PUBCHEM_SHAPE_VOLUME>
364.1

> <PUBCHEM_COORDINATE_TYPE>
2
5
10

$$$$
