49830291
  -OEChem-10052115183D

 40 43  0     0  0  0  0  0  0999 V2000
   -4.2539    1.8761   -0.1142 O   0  0  0  0  0  0  0  0  0  0  0  0
   -0.0988    1.4926    0.0639 N   0  0  0  0  0  0  0  0  0  0  0  0
    2.1625    2.2262    0.0697 N   0  0  0  0  0  0  0  0  0  0  0  0
    3.3647   -1.6287   -0.0692 N   0  0  0  0  0  0  0  0  0  0  0  0
    4.0449    0.6836    0.0020 N   0  0  0  0  0  0  0  0  0  0  0  0
   -2.8905    2.2249    0.0928 C   0  0  0  0  0  0  0  0  0  0  0  0
   -2.2887    1.3369    1.1771 C   0  0  0  0  0  0  0  0  0  0  0  0
   -2.1310    2.0367   -1.2159 C   0  0  0  0  0  0  0  0  0  0  0  0
   -0.7945    1.5964    1.3521 C   0  0  0  0  0  0  0  0  0  0  0  0
   -0.6387    2.3014   -1.0388 C   0  0  0  0  0  0  0  0  0  0  0  0
    1.2720    1.2076    0.0433 C   0  0  0  0  0  0  0  0  0  0  0  0
    1.7332   -0.1072   -0.0046 C   0  0  0  0  0  0  0  0  0  0  0  0
    1.1505   -1.3998   -0.0427 C   0  0  0  0  0  0  0  0  0  0  0  0
    3.1114   -0.2834   -0.0222 C   0  0  0  0  0  0  0  0  0  0  0  0
    2.1789   -2.3172   -0.0820 C   0  0  0  0  0  0  0  0  0  0  0  0
   -0.2273   -1.8012   -0.0434 C   0  0  0  0  0  0  0  0  0  0  0  0
    3.4758    1.9054    0.0477 C   0  0  0  0  0  0  0  0  0  0  0  0
   -0.8851   -2.0358    1.1640 C   0  0  0  0  0  0  0  0  0  0  0  0
   -0.9083   -1.9574   -1.2505 C   0  0  0  0  0  0  0  0  0  0  0  0
   -2.2242   -2.4264    1.1642 C   0  0  0  0  0  0  0  0  0  0  0  0
   -2.2474   -2.3480   -1.2504 C   0  0  0  0  0  0  0  0  0  0  0  0
   -2.9054   -2.5826   -0.0429 C   0  0  0  0  0  0  0  0  0  0  0  0
   -2.8528    3.2773    0.3977 H   0  0  0  0  0  0  0  0  0  0  0  0
   -2.8104    1.5000    2.1277 H   0  0  0  0  0  0  0  0  0  0  0  0
   -2.4718    0.2934    0.9153 H   0  0  0  0  0  0  0  0  0  0  0  0
   -2.2877    1.0156   -1.5875 H   0  0  0  0  0  0  0  0  0  0  0  0
   -2.5428    2.6994   -1.9864 H   0  0  0  0  0  0  0  0  0  0  0  0
   -0.3897    0.8741    2.0706 H   0  0  0  0  0  0  0  0  0  0  0  0
   -0.6318    2.5968    1.7719 H   0  0  0  0  0  0  0  0  0  0  0  0
   -0.4636    3.3648   -0.8339 H   0  0  0  0  0  0  0  0  0  0  0  0
   -0.1276    2.0573   -1.9783 H   0  0  0  0  0  0  0  0  0  0  0  0
   -4.7172    1.9908    0.7331 H   0  0  0  0  0  0  0  0  0  0  0  0
    2.1796   -3.3984   -0.1178 H   0  0  0  0  0  0  0  0  0  0  0  0
    4.2837   -2.0484   -0.0910 H   0  0  0  0  0  0  0  0  0  0  0  0
    4.1631    2.7442    0.0697 H   0  0  0  0  0  0  0  0  0  0  0  0
   -0.3695   -1.9176    2.1142 H   0  0  0  0  0  0  0  0  0  0  0  0
   -0.4111   -1.7763   -2.2006 H   0  0  0  0  0  0  0  0  0  0  0  0
   -2.7370   -2.6074    2.1043 H   0  0  0  0  0  0  0  0  0  0  0  0
   -2.7783   -2.4680   -2.1902 H   0  0  0  0  0  0  0  0  0  0  0  0
   -3.9483   -2.8853   -0.0427 H   0  0  0  0  0  0  0  0  0  0  0  0
  1  6  1  0  0  0  0
  1 32  1  0  0  0  0
  2  9  1  0  0  0  0
  2 10  1  0  0  0  0
  2 11  1  0  0  0  0
  3 11  2  0  0  0  0
  3 17  1  0  0  0  0
  4 14  1  0  0  0  0
  4 15  1  0  0  0  0
  4 34  1  0  0  0  0
  5 14  1  0  0  0  0
  5 17  2  0  0  0  0
  6  7  1  0  0  0  0
  6  8  1  0  0  0  0
  6 23  1  0  0  0  0
  7  9  1  0  0  0  0
  7 24  1  0  0  0  0
  7 25  1  0  0  0  0
  8 10  1  0  0  0  0
  8 26  1  0  0  0  0
  8 27  1  0  0  0  0
  9 28  1  0  0  0  0
  9 29  1  0  0  0  0
 10 30  1  0  0  0  0
 10 31  1  0  0  0  0
 11 12  1  0  0  0  0
 12 13  1  0  0  0  0
 12 14  2  0  0  0  0
 13 15  2  0  0  0  0
 13 16  1  0  0  0  0
 15 33  1  0  0  0  0
 16 18  2  0  0  0  0
 16 19  1  0  0  0  0
 17 35  1  0  0  0  0
 18 20  1  0  0  0  0
 18 36  1  0  0  0  0
 19 21  2  0  0  0  0
 19 37  1  0  0  0  0
 20 22  2  0  0  0  0
 20 38  1  0  0  0  0
 21 22  1  0  0  0  0
 21 39  1  0  0  0  0
 22 40  1  0  0  0  0
M  END
> <PUBCHEM_COMPOUND_CID>
49830291

> <PUBCHEM_CONFORMER_RMSD>
0.6

> <PUBCHEM_CONFORMER_DIVERSEORDER>
1
2
3
5
6
4

> <PUBCHEM_MMFF94_PARTIAL_CHARGES>
28
1 -0.68
10 0.37
11 0.41
13 -0.05
14 0.11
15 -0.3
16 0.05
17 0.47
18 -0.15
19 -0.15
2 -0.84
20 -0.15
21 -0.15
22 -0.15
3 -0.62
32 0.4
33 0.15
34 0.27
35 0.15
36 0.15
37 0.15
38 0.15
39 0.15
4 0.03
40 0.15
5 -0.57
6 0.28
9 0.37

> <PUBCHEM_EFFECTIVE_ROTOR_COUNT>
3.2

> <PUBCHEM_PHARMACOPHORE_FEATURES>
10
1 1 acceptor
1 1 donor
1 4 cation
1 4 donor
3 2 3 11 cation
3 3 5 17 cation
5 4 12 13 14 15 rings
6 16 18 19 20 21 22 rings
6 2 6 7 8 9 10 rings
6 3 5 11 12 14 17 rings

> <PUBCHEM_HEAVY_ATOM_COUNT>
22

> <PUBCHEM_ATOM_DEF_STEREO_COUNT>
0

> <PUBCHEM_ATOM_UDEF_STEREO_COUNT>
0

> <PUBCHEM_BOND_DEF_STEREO_COUNT>
0

> <PUBCHEM_BOND_UDEF_STEREO_COUNT>
0

> <PUBCHEM_ISOTOPIC_ATOM_COUNT>
0

> <PUBCHEM_COMPONENT_COUNT>
1

> <PUBCHEM_CACTVS_TAUTO_COUNT>
3

> <PUBCHEM_CONFORMER_ID>
02F8599300000001

> <PUBCHEM_MMFF94_ENERGY>
63.804

> <PUBCHEM_FEATURE_SELFOVERLAP>
50.979

> <PUBCHEM_SHAPE_FINGERPRINT>
104564 63 18267589193834373861
10688039 33 17970351632093791707
10871710 139 18048051944979301100
10967382 1 18194683661862588626
1100329 8 18265608776278161874
11370993 70 18338795585916787153
11578080 2 17273675723699911186
11680986 33 18341336591764042082
12422481 6 18194994944471659707
13140716 1 18411130313009165874
13965767 371 17625867981495797715
14223421 5 18339366361141976370
14251745 187 18267009725658297857
14790565 3 17399531507158168517
16752209 62 18267867375225335140
16945 1 18122629353627752922
17138139 8 17842802678508338245
17357779 13 18125148583632433039
17492 54 18263915554299134637
19591789 44 17905326221588718535
20905425 154 18270122460087784231
21041028 32 17975421527127033323
21197605 99 18339936961265654075
21236236 1 18339361976587190988
22182313 1 18201447982589151942
23227448 37 18409730642811664167
2334 1 18339082700153441146
23419403 2 16915083264891087801
23558518 356 18187648071724505032
23559900 14 18271523075716329650
238 59 17612845142490665493
2748010 2 18341619204912380398
3060560 45 17975970969065359037
350125 39 18195530522519933568
4340502 62 18342741780641565353
57527452 28 15320742678449291967
6438718 38 18201999945393958751
81228 2 18262511627667911561
8272917 22 17766846022616998001

> <PUBCHEM_SHAPE_MULTIPOLES>
426.96
5.86
4.01
1.16
2.29
0.21
-0.02
-1.12
0.04
-2.43
0.27
-0.84
0.07
0.1

> <PUBCHEM_SHAPE_SELFOVERLAP>
943.726

> <PUBCHEM_SHAPE_VOLUME>
226.6

> <PUBCHEM_COORDINATE_TYPE>
2
5
10

$$$$
