49830547
  -OEChem-10052115183D

 38 41  0     0  0  0  0  0  0999 V2000
   -1.0099    2.4906   -2.8183 Cl  0  0  0  0  0  0  0  0  0  0  0  0
   -4.7768    2.1649    1.0119 Cl  0  0  0  0  0  0  0  0  0  0  0  0
    4.2700    2.2370    0.4409 O   0  0  0  0  0  0  0  0  0  0  0  0
    5.0230   -0.6194    1.2106 O   0  0  0  0  0  0  0  0  0  0  0  0
    1.5337    1.3033   -0.9571 N   0  0  0  0  0  0  0  0  0  0  0  0
    2.3584   -1.8516   -0.1110 N   0  0  0  0  0  0  0  0  0  0  0  0
   -2.9486   -3.3263   -0.1625 N   0  0  0  0  0  0  0  0  0  0  0  0
   -3.5576   -2.3747    0.5646 N   0  0  0  0  0  0  0  0  0  0  0  0
    2.4860    0.6481   -0.3493 C   0  0  0  0  0  0  0  0  0  0  0  0
    2.8210   -0.6223   -0.0071 C   0  0  0  0  0  0  0  0  0  0  0  0
    3.6996    1.1942    0.2543 C   0  0  0  0  0  0  0  0  0  0  0  0
    4.0638   -0.1875    0.6266 C   0  0  0  0  0  0  0  0  0  0  0  0
    1.0286    2.5813   -0.5016 C   0  0  0  0  0  0  0  0  0  0  0  0
    1.0156   -2.2886   -0.1656 C   0  0  0  0  0  0  0  0  0  0  0  0
   -1.3047   -1.9984    0.4233 C   0  0  0  0  0  0  0  0  0  0  0  0
   -0.4308    2.4782   -0.1550 C   0  0  0  0  0  0  0  0  0  0  0  0
    0.0242   -1.5475    0.4897 C   0  0  0  0  0  0  0  0  0  0  0  0
   -1.5957   -3.1586   -0.2856 C   0  0  0  0  0  0  0  0  0  0  0  0
    0.6956   -3.4504   -0.8706 C   0  0  0  0  0  0  0  0  0  0  0  0
   -0.6226   -3.9119   -0.9459 C   0  0  0  0  0  0  0  0  0  0  0  0
   -1.4160    2.4312   -1.1415 C   0  0  0  0  0  0  0  0  0  0  0  0
   -0.7898    2.4279    1.1921 C   0  0  0  0  0  0  0  0  0  0  0  0
   -2.5543   -1.5687    0.9191 C   0  0  0  0  0  0  0  0  0  0  0  0
   -2.7600    2.3341   -0.7809 C   0  0  0  0  0  0  0  0  0  0  0  0
   -2.1338    2.3311    1.5527 C   0  0  0  0  0  0  0  0  0  0  0  0
   -3.1189    2.2841    0.5661 C   0  0  0  0  0  0  0  0  0  0  0  0
    0.8814    0.7992   -1.5557 H   0  0  0  0  0  0  0  0  0  0  0  0
    1.1851    3.3387   -1.2788 H   0  0  0  0  0  0  0  0  0  0  0  0
    1.5877    2.9527    0.3673 H   0  0  0  0  0  0  0  0  0  0  0  0
    2.9960   -2.6396   -0.0103 H   0  0  0  0  0  0  0  0  0  0  0  0
    0.2555   -0.6545    1.0610 H   0  0  0  0  0  0  0  0  0  0  0  0
    1.4760   -4.0157   -1.3761 H   0  0  0  0  0  0  0  0  0  0  0  0
   -0.8732   -4.8138   -1.4931 H   0  0  0  0  0  0  0  0  0  0  0  0
   -0.0348    2.4586    1.9733 H   0  0  0  0  0  0  0  0  0  0  0  0
   -2.7742   -0.7068    1.5314 H   0  0  0  0  0  0  0  0  0  0  0  0
   -3.5173   -4.0687   -0.5502 H   0  0  0  0  0  0  0  0  0  0  0  0
   -3.5297    2.2968   -1.5489 H   0  0  0  0  0  0  0  0  0  0  0  0
   -2.3987    2.2910    2.6061 H   0  0  0  0  0  0  0  0  0  0  0  0
  1 21  1  0  0  0  0
  2 26  1  0  0  0  0
  3 11  2  0  0  0  0
  4 12  2  0  0  0  0
  5  9  1  0  0  0  0
  5 13  1  0  0  0  0
  5 27  1  0  0  0  0
  6 10  1  0  0  0  0
  6 14  1  0  0  0  0
  6 30  1  0  0  0  0
  7  8  1  0  0  0  0
  7 18  1  0  0  0  0
  7 36  1  0  0  0  0
  8 23  2  0  0  0  0
  9 10  2  0  0  0  0
  9 11  1  0  0  0  0
 10 12  1  0  0  0  0
 11 12  1  0  0  0  0
 13 16  1  0  0  0  0
 13 28  1  0  0  0  0
 13 29  1  0  0  0  0
 14 17  2  0  0  0  0
 14 19  1  0  0  0  0
 15 17  1  0  0  0  0
 15 18  2  0  0  0  0
 15 23  1  0  0  0  0
 16 21  2  0  0  0  0
 16 22  1  0  0  0  0
 17 31  1  0  0  0  0
 18 20  1  0  0  0  0
 19 20  2  0  0  0  0
 19 32  1  0  0  0  0
 20 33  1  0  0  0  0
 21 24  1  0  0  0  0
 22 25  2  0  0  0  0
 22 34  1  0  0  0  0
 23 35  1  0  0  0  0
 24 26  2  0  0  0  0
 24 37  1  0  0  0  0
 25 26  1  0  0  0  0
 25 38  1  0  0  0  0
M  END
> <PUBCHEM_COMPOUND_CID>
49830547

> <PUBCHEM_CONFORMER_RMSD>
1.2

> <PUBCHEM_CONFORMER_DIVERSEORDER>
1
111
24
107
90
70
2
84
116
63
77
86
115
103
13
122
85
16
117
112
33
83
30
53
109
23
61
59
40
18
75
15
100
58
71
108
73
57
27
91
89
110
68
22
31
114
12
34
88
50
6
123
62
51
49
105
46
119
47
7
92
104
80
87
102
65
39
43
99
3
44
79
76
5
101
25
10
21
124
55
4
48
37
106
97
11
82
69
8
56
32
98
94
96
42
74
20
28
54
26
67
36
29
38
93
52
45
17
19
64
78
41
35
9
60
120
66
14
95
121
81
72
118
113

> <PUBCHEM_MMFF94_PARTIAL_CHARGES>
35
1 -0.18
10 0.03
11 0.64
12 0.64
13 0.51
14 0.1
16 -0.14
17 -0.15
18 -0.15
19 -0.15
2 -0.18
20 -0.15
21 0.18
22 -0.15
23 0.14
24 -0.15
25 -0.15
26 0.18
27 0.4
3 -0.57
30 0.4
31 0.15
32 0.15
33 0.15
34 0.15
35 0.15
36 0.27
37 0.15
38 0.15
4 -0.57
5 -0.87
6 -0.6
7 0.3
8 -0.71
9 0.03

> <PUBCHEM_EFFECTIVE_ROTOR_COUNT>
5

> <PUBCHEM_PHARMACOPHORE_FEATURES>
12
1 3 acceptor
1 4 acceptor
1 5 cation
1 5 donor
1 6 cation
1 6 donor
1 7 donor
1 8 acceptor
4 9 10 11 12 rings
5 7 8 15 18 23 rings
6 14 15 17 18 19 20 rings
6 16 21 22 24 25 26 rings

> <PUBCHEM_HEAVY_ATOM_COUNT>
26

> <PUBCHEM_ATOM_DEF_STEREO_COUNT>
0

> <PUBCHEM_ATOM_UDEF_STEREO_COUNT>
0

> <PUBCHEM_BOND_DEF_STEREO_COUNT>
0

> <PUBCHEM_BOND_UDEF_STEREO_COUNT>
0

> <PUBCHEM_ISOTOPIC_ATOM_COUNT>
0

> <PUBCHEM_COMPONENT_COUNT>
1

> <PUBCHEM_CACTVS_TAUTO_COUNT>
16

> <PUBCHEM_CONFORMER_ID>
02F85A9300000001

> <PUBCHEM_MMFF94_ENERGY>
71.3843

> <PUBCHEM_FEATURE_SELFOVERLAP>
60.988

> <PUBCHEM_SHAPE_FINGERPRINT>
104564 63 18265063602930400636
10675989 125 15461555552567159063
10688039 33 17896313795675042671
10871710 139 18046364169008365612
11370993 70 18268146452945994528
11513181 2 18131082544882620543
11578080 2 12744560838027430635
12035758 1 17907850709657171330
12156800 1 18123505822886810231
12422481 6 18191896507656076825
12788726 201 18051149269192456836
13004483 165 18192981836953596538
13122387 1 17112700289574692591
13140716 1 18337954489533237362
13402501 40 17759253902910197967
1361 2 18194407676418935833
138480 1 16970833585312705547
13965767 371 18127721299065843394
14081887 123 18054777653664867560
17138139 8 17697271319002161493
18336668 15 17615400798128617964
19591789 44 17546452176661815398
1979834 28 18048907133625173129
19930381 70 17762907563180743065
21133410 38 18130514021005438995
21197605 99 18410586072123255059
22113638 7 17979357791507472223
23419403 2 17273401988264804473
238 59 17396678914317373765
244849 19 17346328072910153710
3052486 1 18263101997188254182
35225 105 17545541995502242352
4340502 62 18269843017232439537
469060 322 17168140169617666694
5282274 181 18337122150292910069
6287921 2 17695352473648152315
6438718 38 18130784585625806751
653340 110 18198056078594566504
7226269 152 16678962228447466556

> <PUBCHEM_SHAPE_MULTIPOLES>
507.14
7.22
5.68
1.49
2.25
5.21
0.77
-4.13
-3.06
-2.06
1.21
-0.84
-1.07
0.61

> <PUBCHEM_SHAPE_SELFOVERLAP>
1110.679

> <PUBCHEM_SHAPE_VOLUME>
275.8

> <PUBCHEM_COORDINATE_TYPE>
2
5
10

$$$$
