49830881
  -OEChem-10052115183D

 34 36  0     0  0  0  0  0  0999 V2000
    4.3700   -0.9248    1.0681 Cl  0  0  0  0  0  0  0  0  0  0  0  0
    4.8147    0.3834   -1.8581 Cl  0  0  0  0  0  0  0  0  0  0  0  0
   -2.5849    3.4004    0.1513 O   0  0  0  0  0  0  0  0  0  0  0  0
   -4.1630    1.3974   -1.5267 O   0  0  0  0  0  0  0  0  0  0  0  0
   -0.8591    1.0901    1.5734 N   0  0  0  0  0  0  0  0  0  0  0  0
   -2.6003   -1.1147   -0.2771 N   0  0  0  0  0  0  0  0  0  0  0  0
    0.4061   -4.0564    0.0349 N   0  0  0  0  0  0  0  0  0  0  0  0
   -1.8101    1.0635    0.6707 C   0  0  0  0  0  0  0  0  0  0  0  0
   -2.5120    0.1725   -0.0755 C   0  0  0  0  0  0  0  0  0  0  0  0
    0.1919    2.0845    1.5839 C   0  0  0  0  0  0  0  0  0  0  0  0
   -2.5268    2.1999    0.0963 C   0  0  0  0  0  0  0  0  0  0  0  0
   -3.2902    1.2310   -0.7154 C   0  0  0  0  0  0  0  0  0  0  0  0
    1.3445    1.6521    0.7419 C   0  0  0  0  0  0  0  0  0  0  0  0
   -1.5864   -2.1067   -0.1721 C   0  0  0  0  0  0  0  0  0  0  0  0
    2.2306    0.6847    1.2156 C   0  0  0  0  0  0  0  0  0  0  0  0
    1.5357    2.2151   -0.5198 C   0  0  0  0  0  0  0  0  0  0  0  0
    3.3081    0.2800    0.4274 C   0  0  0  0  0  0  0  0  0  0  0  0
    2.6133    1.8106   -1.3078 C   0  0  0  0  0  0  0  0  0  0  0  0
   -1.9177   -3.4076    0.1901 C   0  0  0  0  0  0  0  0  0  0  0  0
   -0.2599   -1.7795   -0.4311 C   0  0  0  0  0  0  0  0  0  0  0  0
    3.4995    0.8430   -0.8343 C   0  0  0  0  0  0  0  0  0  0  0  0
   -0.8938   -4.3369    0.2788 C   0  0  0  0  0  0  0  0  0  0  0  0
    0.6899   -2.7816   -0.3147 C   0  0  0  0  0  0  0  0  0  0  0  0
    0.5362    2.2184    2.6174 H   0  0  0  0  0  0  0  0  0  0  0  0
   -0.1740    3.0725    1.2786 H   0  0  0  0  0  0  0  0  0  0  0  0
   -0.5974    0.2302    2.0530 H   0  0  0  0  0  0  0  0  0  0  0  0
   -3.4441   -1.5068   -0.6921 H   0  0  0  0  0  0  0  0  0  0  0  0
    2.0764    0.2476    2.1999 H   0  0  0  0  0  0  0  0  0  0  0  0
    0.8513    2.9678   -0.9021 H   0  0  0  0  0  0  0  0  0  0  0  0
    2.7467    2.2594   -2.2890 H   0  0  0  0  0  0  0  0  0  0  0  0
   -2.9421   -3.6964    0.3998 H   0  0  0  0  0  0  0  0  0  0  0  0
    0.0454   -0.7877   -0.7430 H   0  0  0  0  0  0  0  0  0  0  0  0
   -1.0996   -5.3650    0.5578 H   0  0  0  0  0  0  0  0  0  0  0  0
    1.7371   -2.5807   -0.5145 H   0  0  0  0  0  0  0  0  0  0  0  0
  1 17  1  0  0  0  0
  2 21  1  0  0  0  0
  3 11  2  0  0  0  0
  4 12  2  0  0  0  0
  5  8  1  0  0  0  0
  5 10  1  0  0  0  0
  5 26  1  0  0  0  0
  6  9  1  0  0  0  0
  6 14  1  0  0  0  0
  6 27  1  0  0  0  0
  7 22  2  0  0  0  0
  7 23  1  0  0  0  0
  8  9  2  0  0  0  0
  8 11  1  0  0  0  0
  9 12  1  0  0  0  0
 10 13  1  0  0  0  0
 10 24  1  0  0  0  0
 10 25  1  0  0  0  0
 11 12  1  0  0  0  0
 13 15  2  0  0  0  0
 13 16  1  0  0  0  0
 14 19  2  0  0  0  0
 14 20  1  0  0  0  0
 15 17  1  0  0  0  0
 15 28  1  0  0  0  0
 16 18  2  0  0  0  0
 16 29  1  0  0  0  0
 17 21  2  0  0  0  0
 18 21  1  0  0  0  0
 18 30  1  0  0  0  0
 19 22  1  0  0  0  0
 19 31  1  0  0  0  0
 20 23  2  0  0  0  0
 20 32  1  0  0  0  0
 22 33  1  0  0  0  0
 23 34  1  0  0  0  0
M  END
> <PUBCHEM_COMPOUND_CID>
49830881

> <PUBCHEM_CONFORMER_RMSD>
0.8

> <PUBCHEM_CONFORMER_DIVERSEORDER>
2
89
149
316
312
84
338
48
155
167
322
30
262
332
250
193
163
107
136
313
306
308
46
239
171
63
303
85
33
122
49
222
176
317
68
326
133
179
108
15
203
201
294
217
86
296
235
52
200
304
111
43
6
287
177
182
143
76
214
154
145
253
151
254
197
333
96
212
114
95
16
272
246
279
311
270
79
117
215
221
274
81
153
166
252
301
22
135
238
98
289
77
234
249
271
288
248
162
97
192
42
307
293
286
39
100
69
74
178
146
93
128
141
134
256
321
50
129
36
83
202
315
150
213
233
183
196
58
218
64
180
75
72
325
327
261
310
109
173
144
295
278
9
24
137
138
299
282
35
82
210
47
159
264
94
19
161
284
244
277
305
55
190
339
21
226
56
103
335
105
328
158
67
223
216
225
25
330
184
224
57
29
62
124
70
126
101
260
61
334
31
243
186
148
106
265
121
27
319
290
198
236
280
4
123
3
208
174
102
318
232
157
80
125
152
187
41
45
115
60
324
26
175
240
1
53
32
104
229
147
195
38
228
90
337
11
189
172
323
8
12
291
44
259
220
119
314
139
142
281
20
211
268
37
78
331
130
14
185
88
275
169
309
13
204
40
5
91
255
209
120
242
132
116
65
266
219
283
230
205
17
292
276
165
329
160
336
199
156
87
59
28
113
51
168
206
18
320
34
66
269
207
267
92
140
112
188
10
227
231
164
237
131
181
73
245
71
191
23
110
258
118
7
273
99
263
247
194
302
297
300
54
241
127
257
285
251
298
170

> <PUBCHEM_MMFF94_PARTIAL_CHARGES>
32
1 -0.18
10 0.51
11 0.64
12 0.64
13 -0.14
14 0.1
15 -0.15
16 -0.15
17 0.18
18 -0.15
19 -0.15
2 -0.18
20 -0.15
21 0.18
22 0.16
23 0.16
26 0.4
27 0.4
28 0.15
29 0.15
3 -0.57
30 0.15
31 0.15
32 0.15
33 0.15
34 0.15
4 -0.57
5 -0.87
6 -0.6
7 -0.62
8 0.03
9 0.03

> <PUBCHEM_EFFECTIVE_ROTOR_COUNT>
5

> <PUBCHEM_PHARMACOPHORE_FEATURES>
10
1 3 acceptor
1 4 acceptor
1 5 cation
1 5 donor
1 6 cation
1 6 donor
1 7 acceptor
4 8 9 11 12 rings
6 13 15 16 17 18 21 rings
6 7 14 19 20 22 23 rings

> <PUBCHEM_HEAVY_ATOM_COUNT>
23

> <PUBCHEM_ATOM_DEF_STEREO_COUNT>
0

> <PUBCHEM_ATOM_UDEF_STEREO_COUNT>
0

> <PUBCHEM_BOND_DEF_STEREO_COUNT>
0

> <PUBCHEM_BOND_UDEF_STEREO_COUNT>
0

> <PUBCHEM_ISOTOPIC_ATOM_COUNT>
0

> <PUBCHEM_COMPONENT_COUNT>
1

> <PUBCHEM_CACTVS_TAUTO_COUNT>
11

> <PUBCHEM_CONFORMER_ID>
02F85BE100000002

> <PUBCHEM_MMFF94_ENERGY>
69.834

> <PUBCHEM_FEATURE_SELFOVERLAP>
50.747

> <PUBCHEM_SHAPE_FINGERPRINT>
10190108 129 18341345440161829633
10759866 29 18187932849784182782
11370993 70 18339348691467347988
12156800 1 13388975850128828674
12363563 72 16988849397088578000
12553582 1 17329141884869665379
12592029 89 18338806593949381761
12712778 12 18340752832984352346
12788726 201 18044376269044305938
13941206 138 18262818276049707558
14251740 79 18270701817274952550
14251751 93 18189069714515711228
14251757 5 18267040521022248742
14840074 17 17826494593106559538
15210252 30 16816009716659911871
15463212 79 18187086212904007104
15664445 248 16966327271598462925
16752209 62 18339350993464394990
19591789 44 18267579286115312651
20645476 183 18333732446133326684
20905425 154 17842270372334073021
21781051 124 18260831531805662835
22907989 373 18192720165939284365
23184049 29 18052815046651618688
23419403 2 12520818958086289977
23559900 14 18130793378394844328
314173 41 17256811624754017970
340366 18 18114176441166576396
5282940 2 17908154178437964230
81228 2 17837764900369863467

> <PUBCHEM_SHAPE_MULTIPOLES>
450.39
7.11
4.92
1.4
5.31
4.97
0.05
-2.02
2.56
-4.11
-0.27
1.03
-0.65
-0.08

> <PUBCHEM_SHAPE_SELFOVERLAP>
965.113

> <PUBCHEM_SHAPE_VOLUME>
249.5

> <PUBCHEM_COORDINATE_TYPE>
2
5
10

$$$$
