11414735
  -OEChem-10052120323D

 25 27  0     0  0  0  0  0  0999 V2000
    1.3883   -2.5561   -0.2678 Br  0  0  0  0  0  0  0  0  0  0  0  0
    3.7150   -0.5784   -0.3085 O   0  0  0  0  0  0  0  0  0  0  0  0
   -1.1781    1.8738    0.0680 N   0  0  0  0  0  0  0  0  0  0  0  0
   -4.0738   -0.4104    0.1246 N   0  0  0  0  0  0  0  0  0  0  0  0
    0.0876    0.0432   -0.0823 C   0  0  0  0  0  0  0  0  0  0  0  0
   -1.2864   -0.3522   -0.0245 C   0  0  0  0  0  0  0  0  0  0  0  0
    0.1228    1.4370   -0.0229 C   0  0  0  0  0  0  0  0  0  0  0  0
   -2.0489    0.8115    0.0684 C   0  0  0  0  0  0  0  0  0  0  0  0
    1.3074   -0.6588   -0.1798 C   0  0  0  0  0  0  0  0  0  0  0  0
    1.3170    2.1661   -0.0567 C   0  0  0  0  0  0  0  0  0  0  0  0
    2.5097    0.0567   -0.2143 C   0  0  0  0  0  0  0  0  0  0  0  0
   -1.9526   -1.5877   -0.0426 C   0  0  0  0  0  0  0  0  0  0  0  0
    2.5120    1.4482   -0.1536 C   0  0  0  0  0  0  0  0  0  0  0  0
   -3.4354    0.7823    0.1430 C   0  0  0  0  0  0  0  0  0  0  0  0
   -3.3381   -1.5412    0.0346 C   0  0  0  0  0  0  0  0  0  0  0  0
    4.3536   -0.9341    0.9144 C   0  0  0  0  0  0  0  0  0  0  0  0
   -1.4549    2.8441    0.1260 H   0  0  0  0  0  0  0  0  0  0  0  0
    1.3196    3.2500   -0.0096 H   0  0  0  0  0  0  0  0  0  0  0  0
   -1.4523   -2.5441   -0.1120 H   0  0  0  0  0  0  0  0  0  0  0  0
    3.4526    1.9938   -0.1824 H   0  0  0  0  0  0  0  0  0  0  0  0
   -4.0480    1.6714    0.2158 H   0  0  0  0  0  0  0  0  0  0  0  0
   -3.9168   -2.4600    0.0253 H   0  0  0  0  0  0  0  0  0  0  0  0
    5.1838   -1.6076    0.6844 H   0  0  0  0  0  0  0  0  0  0  0  0
    3.6676   -1.4452    1.5970 H   0  0  0  0  0  0  0  0  0  0  0  0
    4.7557   -0.0385    1.3984 H   0  0  0  0  0  0  0  0  0  0  0  0
  1  9  1  0  0  0  0
  2 11  1  0  0  0  0
  2 16  1  0  0  0  0
  3  7  1  0  0  0  0
  3  8  1  0  0  0  0
  3 17  1  0  0  0  0
  4 14  2  0  0  0  0
  4 15  1  0  0  0  0
  5  6  1  0  0  0  0
  5  7  2  0  0  0  0
  5  9  1  0  0  0  0
  6  8  2  0  0  0  0
  6 12  1  0  0  0  0
  7 10  1  0  0  0  0
  8 14  1  0  0  0  0
  9 11  2  0  0  0  0
 10 13  2  0  0  0  0
 10 18  1  0  0  0  0
 11 13  1  0  0  0  0
 12 15  2  0  0  0  0
 12 19  1  0  0  0  0
 13 20  1  0  0  0  0
 14 21  1  0  0  0  0
 15 22  1  0  0  0  0
 16 23  1  0  0  0  0
 16 24  1  0  0  0  0
 16 25  1  0  0  0  0
M  END
> <PUBCHEM_COMPOUND_CID>
11414735

> <PUBCHEM_CONFORMER_RMSD>
0.6

> <PUBCHEM_CONFORMER_DIVERSEORDER>
1

> <PUBCHEM_MMFF94_PARTIAL_CHARGES>
20
1 -0.11
10 -0.15
11 0.08
12 -0.15
13 -0.15
14 0.16
15 0.16
16 0.28
17 0.27
18 0.15
19 0.15
2 -0.36
20 0.15
21 0.15
22 0.15
3 0.03
4 -0.62
7 -0.15
8 -0.15
9 0.11

> <PUBCHEM_EFFECTIVE_ROTOR_COUNT>
1

> <PUBCHEM_PHARMACOPHORE_FEATURES>
8
1 1 hydrophobe
1 2 acceptor
1 3 cation
1 3 donor
1 4 acceptor
5 3 5 6 7 8 rings
6 4 6 8 12 14 15 rings
6 5 7 9 10 11 13 rings

> <PUBCHEM_HEAVY_ATOM_COUNT>
16

> <PUBCHEM_ATOM_DEF_STEREO_COUNT>
0

> <PUBCHEM_ATOM_UDEF_STEREO_COUNT>
0

> <PUBCHEM_BOND_DEF_STEREO_COUNT>
0

> <PUBCHEM_BOND_UDEF_STEREO_COUNT>
0

> <PUBCHEM_ISOTOPIC_ATOM_COUNT>
0

> <PUBCHEM_COMPONENT_COUNT>
1

> <PUBCHEM_CACTVS_TAUTO_COUNT>
2

> <PUBCHEM_CONFORMER_ID>
00AE2CCF00000001

> <PUBCHEM_MMFF94_ENERGY>
48.8891

> <PUBCHEM_FEATURE_SELFOVERLAP>
40.78

> <PUBCHEM_SHAPE_FINGERPRINT>
10062212 137 18409724071390602795
10608611 8 18410572920390406637
10967382 1 18339364191940788367
11132069 177 18412542093996434098
11471102 20 18410571825115360277
11543360 7 15792024423106526974
11769659 78 18410008883477553757
12032990 46 18411142445547919759
12251169 10 18412826867307477035
12382932 28 18269554953337488146
12553582 1 18410301271918599854
13140716 1 18339926020923531017
13221675 6 18411420591993768687
13380535 76 18410856542608107175
14115302 16 17749401381056145727
14144814 61 18411704291974366385
14178342 30 18197214746420215008
15196674 1 18410575119049210565
15375462 189 18114180800447443242
15442244 35 18410858763058603057
15536298 74 18270964651909235136
16945 1 18339649944683989253
17804303 29 18413392025180192928
18186145 218 17530957029615421295
193761 8 17834679296684406645
200 152 18131059459775678071
20201158 50 18410295795983217847
20645477 70 18409445929593324623
20871998 22 18270125595645966918
21267235 1 18410584984679156495
21501502 16 18338521944701669141
21501925 9 18411411839182624936
221490 88 18191032393973522746
2255824 54 18188214311749546932
22721475 48 18410862057245433773
2334 1 18123472936311641789
23366157 5 17969500592645323300
23402539 116 18340194220093156015
23463225 33 18409167735707669484
23559900 14 18197496225855695822
2748010 2 18266180728029101453
335352 9 18338517439386393125
34934 24 18339072675420307863
5104073 3 18339646736733595753
57005193 9 18340197510259767639
7364860 26 18342461434665733766
8809292 202 18260553358936142155
9709674 26 18411426102595552287

> <PUBCHEM_SHAPE_MULTIPOLES>
319.38
6.64
2.4
0.68
0.04
0.3
-0.04
1.73
-0.97
0.48
0.12
0.28
0.09
-0.19

> <PUBCHEM_SHAPE_SELFOVERLAP>
701.33

> <PUBCHEM_SHAPE_VOLUME>
178.5

> <PUBCHEM_COORDINATE_TYPE>
2
5
10

$$$$
