2779952
  -OEChem-10062122013D

 24 25  0     0  0  0  0  0  0999 V2000
    2.1135    1.3280    0.0015 S   0  0  0  0  0  0  0  0  0  0  0  0
   -3.2256   -2.6440    0.0012 F   0  0  0  0  0  0  0  0  0  0  0  0
   -4.0944   -0.9770    1.0831 F   0  0  0  0  0  0  0  0  0  0  0  0
   -4.0752   -0.9667   -1.0913 F   0  0  0  0  0  0  0  0  0  0  0  0
    1.9449   -2.3913    0.0023 O   0  5  0  0  0  0  0  0  0  0  0  0
   -1.8781    3.4881   -0.0013 O   0  5  0  0  0  0  0  0  0  0  0  0
    0.3164    3.5472    0.0002 O   0  0  0  0  0  0  0  0  0  0  0  0
    4.4475   -1.7931   -0.0121 O   0  0  0  0  0  0  0  0  0  0  0  0
    1.6329   -1.1669    0.0023 N   0  3  0  0  0  0  0  0  0  0  0  0
   -0.7646    2.9146   -0.0004 N   0  3  0  0  0  0  0  0  0  0  0  0
    4.9259    0.4496    0.0030 N   0  0  0  0  0  0  0  0  0  0  0  0
    0.3887   -0.6632    0.0017 C   0  0  0  0  0  0  0  0  0  0  0  0
    0.4608    0.7385    0.0012 C   0  0  0  0  0  0  0  0  0  0  0  0
   -0.7263    1.4904    0.0004 C   0  0  0  0  0  0  0  0  0  0  0  0
   -1.9966   -0.5914    0.0007 C   0  0  0  0  0  0  0  0  0  0  0  0
   -0.8252   -1.3538    0.0014 C   0  0  0  0  0  0  0  0  0  0  0  0
   -1.9476    0.8038    0.0001 C   0  0  0  0  0  0  0  0  0  0  0  0
    2.6130   -0.3161    0.0023 C   0  0  0  0  0  0  0  0  0  0  0  0
   -3.3206   -1.2820    0.0006 C   0  0  0  0  0  0  0  0  0  0  0  0
    4.0106   -0.6147    0.0033 C   0  0  0  0  0  0  0  0  0  0  0  0
   -0.8535   -2.4385    0.0018 H   0  0  0  0  0  0  0  0  0  0  0  0
   -2.8963    1.3385   -0.0005 H   0  0  0  0  0  0  0  0  0  0  0  0
    4.6250    1.4190    0.0078 H   0  0  0  0  0  0  0  0  0  0  0  0
    5.9255    0.2765   -0.0025 H   0  0  0  0  0  0  0  0  0  0  0  0
  1 13  1  0  0  0  0
  1 18  1  0  0  0  0
  2 19  1  0  0  0  0
  3 19  1  0  0  0  0
  4 19  1  0  0  0  0
  5  9  1  0  0  0  0
  6 10  1  0  0  0  0
  7 10  2  0  0  0  0
  8 20  2  0  0  0  0
  9 12  1  0  0  0  0
  9 18  2  0  0  0  0
 10 14  1  0  0  0  0
 11 20  1  0  0  0  0
 11 23  1  0  0  0  0
 11 24  1  0  0  0  0
 12 13  2  0  0  0  0
 12 16  1  0  0  0  0
 13 14  1  0  0  0  0
 14 17  2  0  0  0  0
 15 16  2  0  0  0  0
 15 17  1  0  0  0  0
 15 19  1  0  0  0  0
 16 21  1  0  0  0  0
 17 22  1  0  0  0  0
 18 20  1  0  0  0  0
M  CHG  4   5  -1   6  -1   9   1  10   1
M  END
> <PUBCHEM_COMPOUND_CID>
2779952

> <PUBCHEM_CONFORMER_RMSD>
0.6

> <PUBCHEM_CONFORMER_DIVERSEORDER>
1
2

> <PUBCHEM_MMFF94_PARTIAL_CHARGES>
24
1 -0.08
10 0.91
11 -0.8
12 -0.08
13 0.04
14 0.13
15 -0.14
16 -0.15
17 -0.15
18 -0.13
19 1.16
2 -0.34
20 0.71
21 0.15
22 0.15
23 0.37
24 0.37
3 -0.34
4 -0.34
5 -0.63
6 -0.52
7 -0.52
8 -0.57
9 0.8

> <PUBCHEM_EFFECTIVE_ROTOR_COUNT>
3

> <PUBCHEM_PHARMACOPHORE_FEATURES>
8
1 11 donor
1 5 anion
1 6 acceptor
1 6 anion
1 7 acceptor
1 8 acceptor
5 1 9 12 13 18 rings
6 12 13 14 15 16 17 rings

> <PUBCHEM_HEAVY_ATOM_COUNT>
20

> <PUBCHEM_ATOM_DEF_STEREO_COUNT>
0

> <PUBCHEM_ATOM_UDEF_STEREO_COUNT>
0

> <PUBCHEM_BOND_DEF_STEREO_COUNT>
0

> <PUBCHEM_BOND_UDEF_STEREO_COUNT>
0

> <PUBCHEM_ISOTOPIC_ATOM_COUNT>
0

> <PUBCHEM_COMPONENT_COUNT>
1

> <PUBCHEM_CACTVS_TAUTO_COUNT>
2

> <PUBCHEM_CONFORMER_ID>
002A6B3000000001

> <PUBCHEM_MMFF94_ENERGY>
51.7208

> <PUBCHEM_FEATURE_SELFOVERLAP>
40.75

> <PUBCHEM_SHAPE_FINGERPRINT>
10319926 262 18124571130566601042
10411042 1 18410575123323455594
10608611 8 18268989783371232376
10616163 171 18267304236061549590
10670039 82 18262533550394599764
10967382 1 18122343751018743616
11045515 52 18186237350798015573
11578080 2 17416939834305407401
11806522 49 18408885174378721446
12032990 46 18410013272897408394
12403259 226 18341888568234193336
12553582 1 18410292531871577899
13140716 1 18192995044057516882
13583140 156 13973964277194342119
138480 1 15312097033504477185
14178342 30 18119795933901548658
14787075 74 18042969963907750194
15042514 8 18193561064574782112
15196674 1 18410575055189138530
16945 1 18338516326762866786
17357779 13 18338217337073320261
17492 89 18337108943870530738
1813 80 18199206103506303287
19591789 44 16751571776920519268
200 152 18201711877753218359
20510252 161 18341612581961904040
20645477 70 17903341951779027815
21029758 11 18410287051498193125
21029758 27 18337398243796794653
21041028 32 18336841865613016793
21267235 1 18410583910853072879
21296965 67 18411698815627449720
21501502 16 18192428572288785434
21524375 3 17324090230172100512
221357 26 18265309817085416037
221490 88 17903076968986279315
22182313 1 18266996501233083764
23175994 123 18335703870972695455
2334 1 18410856564293615397
23402539 116 18342733026822703583
23419403 2 18044909467716998788
23557571 272 18200882764402355404
23558518 356 18116725018935925746
23559900 14 17838893738594044606
2748010 2 18339909485378900197
2871803 45 18408317774702180822
3091708 16 9064311749911308185
3286 77 17060330876892165747
335352 9 18410856551651294069
34934 24 18410288086822954595
350125 39 18411983585630514808
352729 6 17835517120429250085
458136 41 17325225403540972201
5104073 3 18340201874484468442
54173680 148 18266459806688510336
68521 5 18410294692044734636
7097593 13 17393591490320755554
7364860 26 17978792638225154921
81228 2 18335988549741924873
8809292 202 18187650261868286339
9709674 26 18054788378076762838

> <PUBCHEM_SHAPE_MULTIPOLES>
355.2
7.35
3.33
0.66
3.2
2.95
0
-4.44
0
-1.42
0
-0.34
-0.08
0.01

> <PUBCHEM_SHAPE_SELFOVERLAP>
772.246

> <PUBCHEM_SHAPE_VOLUME>
198.1

> <PUBCHEM_COORDINATE_TYPE>
2
5
10

$$$$
