44611456
  -OEChem-10062121553D

 43 44  0     0  0  0  0  0  0999 V2000
    5.9413   -0.2992   -1.4029 S   0  0  0  0  0  0  0  0  0  0  0  0
   -3.9329   -1.9299   -0.0536 O   0  0  0  0  0  0  0  0  0  0  0  0
    5.7581   -1.5166   -2.1807 O   0  0  0  0  0  0  0  0  0  0  0  0
    6.1433    0.9712   -2.0854 O   0  0  0  0  0  0  0  0  0  0  0  0
   -0.2591    2.4042    1.1783 O   0  0  0  0  0  0  0  0  0  0  0  0
   -0.0007    0.1538    1.6767 N   0  0  0  0  0  0  0  0  0  0  0  0
   -2.3619   -0.3361    0.5075 N   0  0  0  0  0  0  0  0  0  0  0  0
    7.2227   -0.5382   -0.2983 N   0  0  0  0  0  0  0  0  0  0  0  0
   -4.7003    2.6890   -1.2503 N   0  0  0  0  0  0  0  0  0  0  0  0
   -6.6206   -0.3338   -1.7527 N   0  0  0  0  0  0  0  0  0  0  0  0
    2.4224    0.1325    1.4260 C   0  0  0  0  0  0  0  0  0  0  0  0
    1.2646    0.2743    2.3554 C   0  0  0  0  0  0  0  0  0  0  0  0
    4.5881   -0.1329   -0.3123 C   0  0  0  0  0  0  0  0  0  0  0  0
    2.7817   -1.1273    0.9468 C   0  0  0  0  0  0  0  0  0  0  0  0
    3.1458    1.2595    1.0360 C   0  0  0  0  0  0  0  0  0  0  0  0
    3.8645   -1.2600    0.0776 C   0  0  0  0  0  0  0  0  0  0  0  0
    4.2287    1.1268    0.1670 C   0  0  0  0  0  0  0  0  0  0  0  0
   -1.9733    0.9587    0.4925 C   0  0  0  0  0  0  0  0  0  0  0  0
   -0.6660    1.2461    1.1369 C   0  0  0  0  0  0  0  0  0  0  0  0
   -2.7127    1.9839   -0.0751 C   0  0  0  0  0  0  0  0  0  0  0  0
   -3.9292    1.6595   -0.6652 C   0  0  0  0  0  0  0  0  0  0  0  0
   -3.5499   -0.6132   -0.0755 C   0  0  0  0  0  0  0  0  0  0  0  0
   -4.3631    0.3384   -0.6696 C   0  0  0  0  0  0  0  0  0  0  0  0
   -3.0427   -2.8438    0.5750 C   0  0  0  0  0  0  0  0  0  0  0  0
   -3.6387   -4.2339    0.5137 C   0  0  0  0  0  0  0  0  0  0  0  0
   -5.6100   -0.0329   -1.2678 C   0  0  0  0  0  0  0  0  0  0  0  0
    1.2997    1.2343    2.8840 H   0  0  0  0  0  0  0  0  0  0  0  0
    1.3021   -0.5076    3.1229 H   0  0  0  0  0  0  0  0  0  0  0  0
    2.2261   -2.0127    1.2446 H   0  0  0  0  0  0  0  0  0  0  0  0
    2.8770    2.2471    1.4013 H   0  0  0  0  0  0  0  0  0  0  0  0
    4.1303   -2.2514   -0.2785 H   0  0  0  0  0  0  0  0  0  0  0  0
    4.7815    2.0172   -0.1190 H   0  0  0  0  0  0  0  0  0  0  0  0
   -0.4117   -0.7714    1.5891 H   0  0  0  0  0  0  0  0  0  0  0  0
   -2.3627    3.0115   -0.0654 H   0  0  0  0  0  0  0  0  0  0  0  0
    7.9008    0.2248   -0.1823 H   0  0  0  0  0  0  0  0  0  0  0  0
    7.6394   -1.4759   -0.2471 H   0  0  0  0  0  0  0  0  0  0  0  0
   -2.8947   -2.5679    1.6262 H   0  0  0  0  0  0  0  0  0  0  0  0
   -2.0759   -2.8475    0.0571 H   0  0  0  0  0  0  0  0  0  0  0  0
   -4.3604    3.6417   -1.2329 H   0  0  0  0  0  0  0  0  0  0  0  0
   -5.5889    2.4869   -1.6874 H   0  0  0  0  0  0  0  0  0  0  0  0
   -4.6120   -4.2587    1.0149 H   0  0  0  0  0  0  0  0  0  0  0  0
   -3.8085   -4.5352   -0.5253 H   0  0  0  0  0  0  0  0  0  0  0  0
   -2.9782   -4.9643    0.9893 H   0  0  0  0  0  0  0  0  0  0  0  0
  1  3  2  0  0  0  0
  1  4  2  0  0  0  0
  1  8  1  0  0  0  0
  1 13  1  0  0  0  0
  2 22  1  0  0  0  0
  2 24  1  0  0  0  0
  5 19  2  0  0  0  0
  6 12  1  0  0  0  0
  6 19  1  0  0  0  0
  6 33  1  0  0  0  0
  7 18  2  0  0  0  0
  7 22  1  0  0  0  0
  8 35  1  0  0  0  0
  8 36  1  0  0  0  0
  9 21  1  0  0  0  0
  9 39  1  0  0  0  0
  9 40  1  0  0  0  0
 10 26  3  0  0  0  0
 11 12  1  0  0  0  0
 11 14  2  0  0  0  0
 11 15  1  0  0  0  0
 12 27  1  0  0  0  0
 12 28  1  0  0  0  0
 13 16  2  0  0  0  0
 13 17  1  0  0  0  0
 14 16  1  0  0  0  0
 14 29  1  0  0  0  0
 15 17  2  0  0  0  0
 15 30  1  0  0  0  0
 16 31  1  0  0  0  0
 17 32  1  0  0  0  0
 18 19  1  0  0  0  0
 18 20  1  0  0  0  0
 20 21  2  0  0  0  0
 20 34  1  0  0  0  0
 21 23  1  0  0  0  0
 22 23  2  0  0  0  0
 23 26  1  0  0  0  0
 24 25  1  0  0  0  0
 24 37  1  0  0  0  0
 24 38  1  0  0  0  0
 25 41  1  0  0  0  0
 25 42  1  0  0  0  0
 25 43  1  0  0  0  0
M  END
> <PUBCHEM_COMPOUND_CID>
44611456

> <PUBCHEM_CONFORMER_RMSD>
0.8

> <PUBCHEM_CONFORMER_DIVERSEORDER>
1
157
4
150
128
72
111
16
155
43
37
97
66
29
136
3
82
148
65
109
144
27
152
26
30
147
71
46
122
102
123
55
22
31
101
70
56
105
25
163
19
74
96
76
57
42
38
114
117
44
63
120
141
34
88
104
113
18
156
39
145
73
48
7
108
77
95
110
116
9
69
99
10
139
112
41
58
75
85
64
129
92
124
20
8
49
36
131
47
14
130
91
119
143
132
67
80
13
17
125
127
158
151
60
137
21
68
24
28
83
6
2
15
84
62
153
142
5
40
126
81
87
33
135
94
121
138
160
103
134
154
32
98
162
23
86
53
35
93
146
12
118
61
54
149
50
89
11
90
100
115
140
106
45
51
78
133
59
159
79
107
52
161

> <PUBCHEM_MMFF94_PARTIAL_CHARGES>
35
1 1.45
10 -0.56
11 -0.14
12 0.44
13 -0.01
14 -0.15
15 -0.15
16 -0.15
17 -0.15
18 0.4
19 0.54
2 -0.36
20 -0.15
21 0.1
22 0.39
23 0.07
24 0.28
26 0.48
29 0.15
3 -0.65
30 0.15
31 0.15
32 0.15
33 0.37
34 0.15
35 0.42
36 0.42
39 0.4
4 -0.65
40 0.4
5 -0.57
6 -0.73
7 -0.62
8 -0.98
9 -0.9

> <PUBCHEM_EFFECTIVE_ROTOR_COUNT>
7

> <PUBCHEM_PHARMACOPHORE_FEATURES>
12
1 10 acceptor
1 2 acceptor
1 3 acceptor
1 4 acceptor
1 5 acceptor
1 6 donor
1 7 acceptor
1 8 donor
1 9 cation
1 9 donor
6 11 13 14 15 16 17 rings
6 7 18 20 21 22 23 rings

> <PUBCHEM_HEAVY_ATOM_COUNT>
26

> <PUBCHEM_ATOM_DEF_STEREO_COUNT>
0

> <PUBCHEM_ATOM_UDEF_STEREO_COUNT>
0

> <PUBCHEM_BOND_DEF_STEREO_COUNT>
0

> <PUBCHEM_BOND_UDEF_STEREO_COUNT>
0

> <PUBCHEM_ISOTOPIC_ATOM_COUNT>
0

> <PUBCHEM_COMPONENT_COUNT>
1

> <PUBCHEM_CACTVS_TAUTO_COUNT>
4

> <PUBCHEM_CONFORMER_ID>
02A8B78000000001

> <PUBCHEM_MMFF94_ENERGY>
52.4097

> <PUBCHEM_FEATURE_SELFOVERLAP>
60.966

> <PUBCHEM_SHAPE_FINGERPRINT>
10674148 151 17989203716597609697
13103583 49 12751247986664878538
13690498 29 18262521532332423163
13785724 45 17541384974774178387
14251757 5 18409726257966598681
14251764 30 16988840579356741084
14840074 17 16950561048134729199
14931854 50 18338789027517342791
14951699 99 10737584825472513726
15183329 4 18333731287061836544
15188451 53 12103265106681572525
17870717 6 18412543219646987787
193927 3 16988573390047918312
20645477 70 17203033171125352584
20871999 31 18408880724745026481
21307412 95 18272649074038285399
21315764 119 18336834070030908612
21792934 111 10303548264275249287
22393880 68 18409446994855743602
22849339 104 18335697291246834915
23379529 103 18125446559668279802
23559900 14 18340761645418616480
2748736 6 15502383365547799036
2838139 119 16298387972598462276
3004659 81 18341886381721462272
314194 84 16343985797918050504
34797466 226 18271236226712463912
3737641 26 14116696232999261300
465052 167 16271921653206222188
543368 44 17022624178243401277
57307002 29 18041552646428744863
57724786 102 14490473054677132048
6608658 132 17531241712917638733
7970288 3 16200431368829532572

> <PUBCHEM_SHAPE_MULTIPOLES>
490.54
16.91
2.96
1.85
11.97
2.62
0.16
2.47
12.39
-5.02
-0.29
1.61
-0.21
1.49

> <PUBCHEM_SHAPE_SELFOVERLAP>
1027.609

> <PUBCHEM_SHAPE_VOLUME>
277.9

> <PUBCHEM_COORDINATE_TYPE>
2
5
10

$$$$
