24905332
  -OEChem-10052115143D

 36 39  0     0  0  0  0  0  0999 V2000
   -6.0254    0.9154   -0.6483 Br  0  0  0  0  0  0  0  0  0  0  0  0
   -4.4011    0.4304    1.9719 O   0  0  0  0  0  0  0  0  0  0  0  0
    2.0308    0.6207    0.3210 N   0  0  0  0  0  0  0  0  0  0  0  0
    0.8028    1.1638    0.2273 N   0  0  0  0  0  0  0  0  0  0  0  0
    3.1068   -1.5469    0.2432 N   0  0  0  0  0  0  0  0  0  0  0  0
    1.4947   -3.3419   -0.1167 N   0  0  0  0  0  0  0  0  0  0  0  0
   -0.8462   -2.9438   -0.3576 N   0  0  0  0  0  0  0  0  0  0  0  0
    3.2205    1.4249    0.5374 C   0  0  0  0  0  0  0  0  0  0  0  0
    4.1152    1.5089   -0.7169 C   0  0  0  0  0  0  0  0  0  0  0  0
    2.9568    2.9343    0.3566 C   0  0  0  0  0  0  0  0  0  0  0  0
    4.3079    3.0035   -0.3850 C   0  0  0  0  0  0  0  0  0  0  0  0
    2.0376   -0.7366    0.1936 C   0  0  0  0  0  0  0  0  0  0  0  0
    0.7186   -1.1090    0.0027 C   0  0  0  0  0  0  0  0  0  0  0  0
    0.0081    0.1055    0.0335 C   0  0  0  0  0  0  0  0  0  0  0  0
   -1.4123    0.2953   -0.1175 C   0  0  0  0  0  0  0  0  0  0  0  0
    0.4613   -2.4667   -0.1560 C   0  0  0  0  0  0  0  0  0  0  0  0
    2.7355   -2.8349    0.0778 C   0  0  0  0  0  0  0  0  0  0  0  0
   -2.2423    0.2734    1.0034 C   0  0  0  0  0  0  0  0  0  0  0  0
   -1.9574    0.5005   -1.3850 C   0  0  0  0  0  0  0  0  0  0  0  0
   -3.6172    0.4570    0.8569 C   0  0  0  0  0  0  0  0  0  0  0  0
   -3.3323    0.6840   -1.5316 C   0  0  0  0  0  0  0  0  0  0  0  0
   -4.1622    0.6623   -0.4106 C   0  0  0  0  0  0  0  0  0  0  0  0
    3.7558    1.1764    1.4617 H   0  0  0  0  0  0  0  0  0  0  0  0
    3.6048    1.3404   -1.6732 H   0  0  0  0  0  0  0  0  0  0  0  0
    5.0259    0.9043   -0.6917 H   0  0  0  0  0  0  0  0  0  0  0  0
    2.9032    3.5176    1.2802 H   0  0  0  0  0  0  0  0  0  0  0  0
    2.1231    3.2291   -0.2917 H   0  0  0  0  0  0  0  0  0  0  0  0
    5.1625    3.2032    0.2716 H   0  0  0  0  0  0  0  0  0  0  0  0
    4.3484    3.6804   -1.2419 H   0  0  0  0  0  0  0  0  0  0  0  0
    3.5393   -3.5628    0.1038 H   0  0  0  0  0  0  0  0  0  0  0  0
   -1.8178    0.1127    1.9924 H   0  0  0  0  0  0  0  0  0  0  0  0
   -1.3240    0.5196   -2.2688 H   0  0  0  0  0  0  0  0  0  0  0  0
   -1.6357   -2.3159   -0.3917 H   0  0  0  0  0  0  0  0  0  0  0  0
   -0.9890   -3.9386   -0.4688 H   0  0  0  0  0  0  0  0  0  0  0  0
   -3.7393    0.8424   -2.5270 H   0  0  0  0  0  0  0  0  0  0  0  0
   -3.8426    0.2765    2.7530 H   0  0  0  0  0  0  0  0  0  0  0  0
  1 22  1  0  0  0  0
  2 20  1  0  0  0  0
  2 36  1  0  0  0  0
  3  4  1  0  0  0  0
  3  8  1  0  0  0  0
  3 12  1  0  0  0  0
  4 14  2  0  0  0  0
  5 12  2  0  0  0  0
  5 17  1  0  0  0  0
  6 16  1  0  0  0  0
  6 17  2  0  0  0  0
  7 16  1  0  0  0  0
  7 33  1  0  0  0  0
  7 34  1  0  0  0  0
  8  9  1  0  0  0  0
  8 10  1  0  0  0  0
  8 23  1  0  0  0  0
  9 11  1  0  0  0  0
  9 24  1  0  0  0  0
  9 25  1  0  0  0  0
 10 11  1  0  0  0  0
 10 26  1  0  0  0  0
 10 27  1  0  0  0  0
 11 28  1  0  0  0  0
 11 29  1  0  0  0  0
 12 13  1  0  0  0  0
 13 14  1  0  0  0  0
 13 16  2  0  0  0  0
 14 15  1  0  0  0  0
 15 18  2  0  0  0  0
 15 19  1  0  0  0  0
 17 30  1  0  0  0  0
 18 20  1  0  0  0  0
 18 31  1  0  0  0  0
 19 21  2  0  0  0  0
 19 32  1  0  0  0  0
 20 22  2  0  0  0  0
 21 22  1  0  0  0  0
 21 35  1  0  0  0  0
M  END
> <PUBCHEM_COMPOUND_CID>
24905332

> <PUBCHEM_CONFORMER_RMSD>
0.6

> <PUBCHEM_CONFORMER_DIVERSEORDER>
2
7
6
3
8
4
5
1

> <PUBCHEM_MMFF94_PARTIAL_CHARGES>
25
1 -0.11
12 0.11
14 0.23
15 0.05
16 0.41
17 0.47
18 -0.15
19 -0.15
2 -0.53
20 0.08
21 -0.15
22 0.11
3 0.48
30 0.15
31 0.15
32 0.15
33 0.4
34 0.4
35 0.15
36 0.45
4 -0.71
5 -0.57
6 -0.62
7 -0.9
8 0.09

> <PUBCHEM_EFFECTIVE_ROTOR_COUNT>
2.8

> <PUBCHEM_PHARMACOPHORE_FEATURES>
11
1 1 hydrophobe
1 2 donor
1 4 acceptor
1 7 cation
1 7 donor
3 3 5 12 cation
3 5 6 17 cation
4 8 9 10 11 rings
5 3 4 12 13 14 rings
6 15 18 19 20 21 22 rings
6 5 6 12 13 16 17 rings

> <PUBCHEM_HEAVY_ATOM_COUNT>
22

> <PUBCHEM_ATOM_DEF_STEREO_COUNT>
0

> <PUBCHEM_ATOM_UDEF_STEREO_COUNT>
0

> <PUBCHEM_BOND_DEF_STEREO_COUNT>
0

> <PUBCHEM_BOND_UDEF_STEREO_COUNT>
0

> <PUBCHEM_ISOTOPIC_ATOM_COUNT>
0

> <PUBCHEM_COMPONENT_COUNT>
1

> <PUBCHEM_CACTVS_TAUTO_COUNT>
15

> <PUBCHEM_CONFORMER_ID>
017C067400000002

> <PUBCHEM_MMFF94_ENERGY>
60.5776

> <PUBCHEM_FEATURE_SELFOVERLAP>
56.1

> <PUBCHEM_SHAPE_FINGERPRINT>
10165383 225 18336551620070864860
10411042 1 17762616196752574206
10693767 8 18059859398966696598
1100329 8 18410853257612377106
11582403 64 16521537151199470349
11725454 13 17025956797823426629
12236239 1 17489014960515510975
12390115 104 18051426346460435244
12553582 1 18053384297291038238
12644460 14 18408042888326206186
12730499 353 18408608080194656737
12788726 201 17203331083743706417
12895836 83 17681015160182590364
12895837 130 16667432642613729372
13009979 54 17415843487736095346
13134695 92 18047181956498879046
13140716 1 18338228362692290322
13533116 47 18271522018953492609
13583140 156 16806703179896982560
13631057 29 17984412208380867503
13955234 65 18409445847587954643
14790565 3 18048039867499765509
14955137 171 18336824174875177674
15342168 16 18336263539286532637
15842332 3 17846491500921312375
15961568 22 17240768397232396917
16945 1 18339637828987539462
17134986 127 18336827606405983532
17138139 8 17555983091438662247
1813 80 17699858315175196262
18186145 218 18342741844744003020
18785283 64 18334580140024291786
19591789 44 18194687201031776082
19784866 34 18270113642747097112
200 152 18129087928274465063
204376 136 18337954600859508457
20510252 161 17693656330864835008
20554085 129 17845073225717133432
20612939 158 18413108333805217860
20645477 70 18335975368582011479
21756936 100 17774174524775716344
2255824 54 18342455885689598990
23557571 272 17023465240282589333
23559900 14 18337384933740779819
23598291 2 17774449261164965121
25147074 1 18268972328313359894
283562 15 17690834979638665842
312423 11 17988648424386377161
335352 9 18411136944686519292
350125 39 18194403527005553114
3729539 64 18193302744690015486
458136 41 18410581699218663370
474 4 18341609330239235016
495365 180 18410844452222174777
5104073 3 18187368697366831681
6025842 7 18411694370663222887
6034566 193 17972605656015117837
6049 1 17823141129263769117
621550 34 18186796959662363525
6327066 14 18190174788132313692
633830 44 18059307520758312597
7364860 26 18410572843217658126
77492 1 17560792191899339935
81228 2 17327170456647699224
8272917 22 18341048523727643669
9999458 23 18334292029186283830

> <PUBCHEM_SHAPE_MULTIPOLES>
427.92
9.88
3.42
1.12
9.42
1.94
0.11
-6.97
-0.51
-5.44
-0.28
1.32
-0.3
0.01

> <PUBCHEM_SHAPE_SELFOVERLAP>
937.479

> <PUBCHEM_SHAPE_VOLUME>
239.9

> <PUBCHEM_COORDINATE_TYPE>
2
5
10

$$$$
