11650194
  -OEChem-10062122023D

 80 85  0     0  0  0  0  0  0999 V2000
   -1.0968    4.0826   -1.9816 F   0  0  0  0  0  0  0  0  0  0  0  0
    4.4639   -5.2328    1.0050 O   0  0  0  0  0  0  0  0  0  0  0  0
    6.9671    0.2415   -0.1587 O   0  0  0  0  0  0  0  0  0  0  0  0
    5.1731   -0.3791   -2.1885 O   0  0  0  0  0  0  0  0  0  0  0  0
    1.1674    2.6378   -1.3794 O   0  0  0  0  0  0  0  0  0  0  0  0
   -3.8560    1.9692    2.3475 O   0  0  0  0  0  0  0  0  0  0  0  0
    6.2062   -3.1204    0.2279 N   0  0  0  0  0  0  0  0  0  0  0  0
   -5.7145    0.6315    1.8810 N   0  0  0  0  0  0  0  0  0  0  0  0
    3.9389    3.4621    1.5931 N   0  0  0  0  0  0  0  0  0  0  0  0
   -5.8527   -0.4945   -0.2074 N   0  0  0  0  0  0  0  0  0  0  0  0
    5.5183   -3.9549   -0.7671 C   0  0  0  0  0  0  0  0  0  0  0  0
    6.4322   -3.8891    1.4597 C   0  0  0  0  0  0  0  0  0  0  0  0
    7.4681   -2.6114   -0.3051 C   0  0  0  0  0  0  0  0  0  0  0  0
    4.2109   -4.4837   -0.1842 C   0  0  0  0  0  0  0  0  0  0  0  0
    5.1036   -4.4206    1.9901 C   0  0  0  0  0  0  0  0  0  0  0  0
    8.1261   -1.6709    0.6994 C   0  0  0  0  0  0  0  0  0  0  0  0
    7.2248   -0.4896    1.0322 C   0  0  0  0  0  0  0  0  0  0  0  0
    5.7578    0.8813   -0.2423 C   0  0  0  0  0  0  0  0  0  0  0  0
    4.8691    0.5661   -1.2569 C   0  0  0  0  0  0  0  0  0  0  0  0
    5.4375    1.8506    0.7056 C   0  0  0  0  0  0  0  0  0  0  0  0
    3.3180    2.2086   -0.3692 C   0  0  0  0  0  0  0  0  0  0  0  0
    4.2229    2.5296    0.6643 C   0  0  0  0  0  0  0  0  0  0  0  0
    3.6473    1.2296   -1.3220 C   0  0  0  0  0  0  0  0  0  0  0  0
    2.0951    2.8918   -0.4112 C   0  0  0  0  0  0  0  0  0  0  0  0
   -6.3509   -0.1839    0.9489 C   0  0  0  0  0  0  0  0  0  0  0  0
   -7.7069   -0.7467    1.3033 C   0  0  0  0  0  0  0  0  0  0  0  0
   -3.8921    0.8278    0.2771 C   0  0  0  0  0  0  0  0  0  0  0  0
   -2.5673    1.3023   -0.1563 C   0  0  0  0  0  0  0  0  0  0  0  0
   -4.4670    1.2033    1.6041 C   0  0  0  0  0  0  0  0  0  0  0  0
    1.7996    3.8531    0.5445 C   0  0  0  0  0  0  0  0  0  0  0  0
   -0.0775    2.1935   -0.9722 C   0  0  0  0  0  0  0  0  0  0  0  0
   -8.2302   -1.5952    0.1881 C   0  0  0  0  0  0  0  0  0  0  0  0
   -4.6228    0.0200   -0.5056 C   0  0  0  0  0  0  0  0  0  0  0  0
   -2.4538    2.4907   -0.8776 C   0  0  0  0  0  0  0  0  0  0  0  0
   -1.4257    0.5630    0.1537 C   0  0  0  0  0  0  0  0  0  0  0  0
    2.7476    4.0985    1.5170 C   0  0  0  0  0  0  0  0  0  0  0  0
   -6.3381    0.9328    3.1689 C   0  0  0  0  0  0  0  0  0  0  0  0
   -1.1990    2.9400   -1.2888 C   0  0  0  0  0  0  0  0  0  0  0  0
   -0.1709    1.0120   -0.2575 C   0  0  0  0  0  0  0  0  0  0  0  0
   -7.9427   -2.9576    0.1601 C   0  0  0  0  0  0  0  0  0  0  0  0
   -9.0023   -1.0190   -0.8177 C   0  0  0  0  0  0  0  0  0  0  0  0
    4.1956   -0.6357   -3.1953 C   0  0  0  0  0  0  0  0  0  0  0  0
   -8.4303   -3.7488   -0.8801 C   0  0  0  0  0  0  0  0  0  0  0  0
   -9.4900   -1.8103   -1.8578 C   0  0  0  0  0  0  0  0  0  0  0  0
   -9.2039   -3.1752   -1.8890 C   0  0  0  0  0  0  0  0  0  0  0  0
    6.1550   -4.7998   -1.0602 H   0  0  0  0  0  0  0  0  0  0  0  0
    5.2948   -3.3701   -1.6664 H   0  0  0  0  0  0  0  0  0  0  0  0
    6.8573   -3.2787    2.2608 H   0  0  0  0  0  0  0  0  0  0  0  0
    7.1118   -4.7296    1.2678 H   0  0  0  0  0  0  0  0  0  0  0  0
    8.1599   -3.4315   -0.5379 H   0  0  0  0  0  0  0  0  0  0  0  0
    7.2916   -2.0758   -1.2456 H   0  0  0  0  0  0  0  0  0  0  0  0
    3.5088   -3.6704    0.0372 H   0  0  0  0  0  0  0  0  0  0  0  0
    3.7264   -5.1529   -0.9024 H   0  0  0  0  0  0  0  0  0  0  0  0
    5.2767   -5.0443    2.8730 H   0  0  0  0  0  0  0  0  0  0  0  0
    4.4309   -3.6061    2.2861 H   0  0  0  0  0  0  0  0  0  0  0  0
    8.4583   -2.1787    1.6095 H   0  0  0  0  0  0  0  0  0  0  0  0
    9.0395   -1.2851    0.2270 H   0  0  0  0  0  0  0  0  0  0  0  0
    6.2976   -0.8200    1.5164 H   0  0  0  0  0  0  0  0  0  0  0  0
    7.7489    0.1706    1.7329 H   0  0  0  0  0  0  0  0  0  0  0  0
    6.1511    2.0926    1.4914 H   0  0  0  0  0  0  0  0  0  0  0  0
    2.9154    1.0224   -2.0957 H   0  0  0  0  0  0  0  0  0  0  0  0
   -7.6309   -1.3379    2.2231 H   0  0  0  0  0  0  0  0  0  0  0  0
   -8.4022    0.0746    1.5126 H   0  0  0  0  0  0  0  0  0  0  0  0
    0.8697    4.4107    0.5379 H   0  0  0  0  0  0  0  0  0  0  0  0
   -4.2421   -0.2840   -1.4771 H   0  0  0  0  0  0  0  0  0  0  0  0
   -3.3340    3.0786   -1.1263 H   0  0  0  0  0  0  0  0  0  0  0  0
   -1.4983   -0.3662    0.7139 H   0  0  0  0  0  0  0  0  0  0  0  0
    2.5733    4.8412    2.2887 H   0  0  0  0  0  0  0  0  0  0  0  0
   -6.5272   -0.0024    3.7037 H   0  0  0  0  0  0  0  0  0  0  0  0
   -5.7064    1.5715    3.7913 H   0  0  0  0  0  0  0  0  0  0  0  0
   -7.2905    1.4415    2.9939 H   0  0  0  0  0  0  0  0  0  0  0  0
    0.7075    0.4205   -0.0178 H   0  0  0  0  0  0  0  0  0  0  0  0
   -7.3394   -3.4156    0.9393 H   0  0  0  0  0  0  0  0  0  0  0  0
   -9.2301    0.0434   -0.8052 H   0  0  0  0  0  0  0  0  0  0  0  0
    3.2703   -1.0358   -2.7666 H   0  0  0  0  0  0  0  0  0  0  0  0
    4.6041   -1.4142   -3.8482 H   0  0  0  0  0  0  0  0  0  0  0  0
    4.0205    0.2448   -3.8227 H   0  0  0  0  0  0  0  0  0  0  0  0
   -8.2070   -4.8115   -0.9049 H   0  0  0  0  0  0  0  0  0  0  0  0
  -10.0918   -1.3636   -2.6438 H   0  0  0  0  0  0  0  0  0  0  0  0
   -9.5832   -3.7911   -2.6991 H   0  0  0  0  0  0  0  0  0  0  0  0
  1 38  1  0  0  0  0
  2 14  1  0  0  0  0
  2 15  1  0  0  0  0
  3 17  1  0  0  0  0
  3 18  1  0  0  0  0
  4 19  1  0  0  0  0
  4 42  1  0  0  0  0
  5 24  1  0  0  0  0
  5 31  1  0  0  0  0
  6 29  2  0  0  0  0
  7 11  1  0  0  0  0
  7 12  1  0  0  0  0
  7 13  1  0  0  0  0
  8 25  1  0  0  0  0
  8 29  1  0  0  0  0
  8 37  1  0  0  0  0
  9 22  2  0  0  0  0
  9 36  1  0  0  0  0
 10 25  2  0  0  0  0
 10 33  1  0  0  0  0
 11 14  1  0  0  0  0
 11 46  1  0  0  0  0
 11 47  1  0  0  0  0
 12 15  1  0  0  0  0
 12 48  1  0  0  0  0
 12 49  1  0  0  0  0
 13 16  1  0  0  0  0
 13 50  1  0  0  0  0
 13 51  1  0  0  0  0
 14 52  1  0  0  0  0
 14 53  1  0  0  0  0
 15 54  1  0  0  0  0
 15 55  1  0  0  0  0
 16 17  1  0  0  0  0
 16 56  1  0  0  0  0
 16 57  1  0  0  0  0
 17 58  1  0  0  0  0
 17 59  1  0  0  0  0
 18 19  1  0  0  0  0
 18 20  2  0  0  0  0
 19 23  2  0  0  0  0
 20 22  1  0  0  0  0
 20 60  1  0  0  0  0
 21 22  1  0  0  0  0
 21 23  1  0  0  0  0
 21 24  2  0  0  0  0
 23 61  1  0  0  0  0
 24 30  1  0  0  0  0
 25 26  1  0  0  0  0
 26 32  1  0  0  0  0
 26 62  1  0  0  0  0
 26 63  1  0  0  0  0
 27 28  1  0  0  0  0
 27 29  1  0  0  0  0
 27 33  2  0  0  0  0
 28 34  2  0  0  0  0
 28 35  1  0  0  0  0
 30 36  2  0  0  0  0
 30 64  1  0  0  0  0
 31 38  2  0  0  0  0
 31 39  1  0  0  0  0
 32 40  2  0  0  0  0
 32 41  1  0  0  0  0
 33 65  1  0  0  0  0
 34 38  1  0  0  0  0
 34 66  1  0  0  0  0
 35 39  2  0  0  0  0
 35 67  1  0  0  0  0
 36 68  1  0  0  0  0
 37 69  1  0  0  0  0
 37 70  1  0  0  0  0
 37 71  1  0  0  0  0
 39 72  1  0  0  0  0
 40 43  1  0  0  0  0
 40 73  1  0  0  0  0
 41 44  2  0  0  0  0
 41 74  1  0  0  0  0
 42 75  1  0  0  0  0
 42 76  1  0  0  0  0
 42 77  1  0  0  0  0
 43 45  2  0  0  0  0
 43 78  1  0  0  0  0
 44 45  1  0  0  0  0
 44 79  1  0  0  0  0
 45 80  1  0  0  0  0
M  END
> <PUBCHEM_COMPOUND_CID>
11650194

> <PUBCHEM_CONFORMER_RMSD>
1.2

> <PUBCHEM_CONFORMER_DIVERSEORDER>
1
284
192
313
91
82
169
102
304
350
318
333
328
351
142
52
271
258
54
83
231
296
325
279
228
49
156
165
334
187
307
262
213
5
265
40
335
257
128
70
302
198
175
218
358
212
300
190
126
275
191
285
182
7
322
310
196
250
171
261
90
236
62
110
305
214
131
337
117
69
132
113
210
255
194
146
185
253
287
226
349
332
308
221
357
67
205
281
173
98
209
123
73
272
184
297
240
96
153
291
229
356
43
320
197
114
254
204
178
108
116
252
87
75
294
166
174
289
177
239
201
152
299
232
109
256
63
193
316
33
269
317
249
345
16
267
14
144
111
348
101
157
301
314
137
172
242
81
119
56
288
12
309
276
136
176
200
66
227
280
21
339
336
138
247
282
224
293
27
208
72
77
266
158
31
53
233
162
353
248
260
89
326
167
237
61
104
97
222
207
161
216
148
306
13
139
64
331
277
343
251
121
95
315
264
244
311
147
159
129
298
230
319
112
28
2
149
290
268
324
170
29
155
274
94
51
189
107
71
35
9
347
217
295
122
235
133
340
115
219
278
283
327
188
36
163
206
151
105
143
303
20
270
342
292
118
243
211
168
103
338
220
223
160
341
259
60
38
246
273
99
181
26
4
80
88
321
330
140
47
37
164
84
134
183
127
141
25
100
22
154
225
263
202
85
10
19
145
355
135
195
23
215
179
32
329
286
24
45
352
150
41
238
312
106
8
346
48
130
199
44
18
17
74
58
203
245
92
360
359
68
39
234
354
11
59
3
65
344
120
79
30
125
57
15
46
124
6
241
86
180
34
42
55
186
50
76
93
323
78

> <PUBCHEM_MMFF94_PARTIAL_CHARGES>
56
1 -0.19
10 -0.62
11 0.27
12 0.27
13 0.27
14 0.28
15 0.28
17 0.28
18 0.08
19 0.08
2 -0.56
20 -0.15
22 0.31
23 -0.15
24 0.08
25 0.45
26 0.2
27 -0.01
28 0.03
29 0.62
3 -0.36
30 -0.15
31 0.08
32 -0.14
33 0.02
34 -0.15
35 -0.15
36 0.16
37 0.3
38 0.19
39 -0.15
4 -0.36
40 -0.15
41 -0.15
42 0.28
43 -0.15
44 -0.15
45 -0.15
5 -0.17
6 -0.57
60 0.15
61 0.15
64 0.15
65 0.15
66 0.15
67 0.15
68 0.15
7 -0.81
72 0.15
73 0.15
74 0.15
78 0.15
79 0.15
8 -0.42
80 0.15
9 -0.62

> <PUBCHEM_EFFECTIVE_ROTOR_COUNT>
12.2

> <PUBCHEM_PHARMACOPHORE_FEATURES>
13
1 2 acceptor
1 3 acceptor
1 4 acceptor
1 5 acceptor
1 6 acceptor
1 7 cation
1 9 acceptor
6 18 19 20 21 22 23 rings
6 2 7 11 12 14 15 rings
6 28 31 34 35 38 39 rings
6 32 40 41 43 44 45 rings
6 8 10 25 27 29 33 rings
6 9 21 22 24 30 36 rings

> <PUBCHEM_HEAVY_ATOM_COUNT>
45

> <PUBCHEM_ATOM_DEF_STEREO_COUNT>
0

> <PUBCHEM_ATOM_UDEF_STEREO_COUNT>
0

> <PUBCHEM_BOND_DEF_STEREO_COUNT>
0

> <PUBCHEM_BOND_UDEF_STEREO_COUNT>
0

> <PUBCHEM_ISOTOPIC_ATOM_COUNT>
0

> <PUBCHEM_COMPONENT_COUNT>
1

> <PUBCHEM_CACTVS_TAUTO_COUNT>
1

> <PUBCHEM_CONFORMER_ID>
00B1C49200000001

> <PUBCHEM_MMFF94_ENERGY>
155.3631

> <PUBCHEM_FEATURE_SELFOVERLAP>
66.014

> <PUBCHEM_SHAPE_FINGERPRINT>
11408170 108 18408606977073935595
11534866 41 18341042021943846912
117089 54 18335988550100432602
12539765 74 10665214948309665337
13782708 43 18335140856447617252
14400156 188 18272087202564253324
18738133 686 18131071536981803983
19841028 212 18410570691677062847
21987483 16 17914050061198707777
23569943 247 18336830788734209259
4112364 45 15051728733341590760
50009960 94 18336263453302991783
6201320 82 10375288081972720450
6201460 15 17538841387498052370
9555976 147 17488475078895117993
9689198 14 8357998671196171965
9831232 110 18335140920803256661
9962374 69 18337106877769423068

> <PUBCHEM_SHAPE_MULTIPOLES>
869.53
31.2
6.73
2.25
47.9
5.14
0.1
37.32
0.12
-9.8
1.04
1.26
-0.16
-4.28

> <PUBCHEM_SHAPE_SELFOVERLAP>
1904.208

> <PUBCHEM_SHAPE_VOLUME>
473

> <PUBCHEM_COORDINATE_TYPE>
2
5
10

$$$$
