49830365
  -OEChem-10062121553D

 59 63  0     1  0  0  0  0  0999 V2000
   -3.4415   -0.2608    1.7555 S   0  0  0  0  0  0  0  0  0  0  0  0
   11.5124    0.3034    0.1139 F   0  0  0  0  0  0  0  0  0  0  0  0
   -8.4801   -3.1334   -0.3639 O   0  0  0  0  0  0  0  0  0  0  0  0
    5.1138   -1.2547   -0.3775 O   0  0  0  0  0  0  0  0  0  0  0  0
   -7.8684   -0.1196   -0.2218 N   0  0  0  0  0  0  0  0  0  0  0  0
   -7.8276    0.5795    0.9253 N   0  0  0  0  0  0  0  0  0  0  0  0
   -2.9089    1.8812   -2.1421 N   0  0  0  0  0  0  0  0  0  0  0  0
   -0.5700    1.8195   -1.8064 N   0  0  0  0  0  0  0  0  0  0  0  0
    4.4779    0.7149    0.7207 N   0  0  0  0  0  0  0  0  0  0  0  0
    6.7176    0.2778    0.3627 N   0  0  0  0  0  0  0  0  0  0  0  0
   -2.0758    0.8407   -0.1434 C   0  0  0  0  0  0  0  0  0  0  0  0
   -3.3903    0.5628    0.2422 C   0  0  0  0  0  0  0  0  0  0  0  0
   -4.4770    0.9390   -0.5561 C   0  0  0  0  0  0  0  0  0  0  0  0
   -1.1372    0.3616    0.8306 C   0  0  0  0  0  0  0  0  0  0  0  0
   -5.8293    0.6622   -0.1782 C   0  0  0  0  0  0  0  0  0  0  0  0
   -9.0835   -0.7977   -0.6049 C   0  0  0  0  0  0  0  0  0  0  0  0
   -6.6968   -0.1017   -0.9202 C   0  0  0  0  0  0  0  0  0  0  0  0
    0.3022    0.4516    0.8030 C   0  0  0  0  0  0  0  0  0  0  0  0
   -1.8705    1.5110   -1.3598 C   0  0  0  0  0  0  0  0  0  0  0  0
   -9.2941   -2.0968    0.1818 C   0  0  1  0  0  0  0  0  0  0  0  0
   -1.7431   -0.2511    1.9018 C   0  0  0  0  0  0  0  0  0  0  0  0
   -4.1602    1.5940   -1.7332 C   0  0  0  0  0  0  0  0  0  0  0  0
   -6.5795    1.0548    0.9464 C   0  0  0  0  0  0  0  0  0  0  0  0
    1.0536   -0.5655    0.2142 C   0  0  0  0  0  0  0  0  0  0  0  0
    0.9426    1.5563    1.3644 C   0  0  0  0  0  0  0  0  0  0  0  0
  -10.7481   -2.5481    0.1252 C   0  0  0  0  0  0  0  0  0  0  0  0
    3.0858    0.6266    0.7487 C   0  0  0  0  0  0  0  0  0  0  0  0
    2.4454   -0.4781    0.1870 C   0  0  0  0  0  0  0  0  0  0  0  0
    2.3345    1.6438    1.3373 C   0  0  0  0  0  0  0  0  0  0  0  0
    5.4109   -0.2007    0.1755 C   0  0  0  0  0  0  0  0  0  0  0  0
    7.9328   -0.3304   -0.0317 C   0  0  0  0  0  0  0  0  0  0  0  0
    9.1474    0.2987    0.2410 C   0  0  0  0  0  0  0  0  0  0  0  0
    7.9161   -1.5579   -0.6942 C   0  0  0  0  0  0  0  0  0  0  0  0
   10.3455   -0.2997   -0.1487 C   0  0  0  0  0  0  0  0  0  0  0  0
    9.1143   -2.1561   -1.0839 C   0  0  0  0  0  0  0  0  0  0  0  0
   10.3291   -1.5270   -0.8113 C   0  0  0  0  0  0  0  0  0  0  0  0
   -9.9018   -0.0899   -0.4270 H   0  0  0  0  0  0  0  0  0  0  0  0
   -9.0307   -0.9949   -1.6819 H   0  0  0  0  0  0  0  0  0  0  0  0
   -6.5845   -0.6242   -1.8612 H   0  0  0  0  0  0  0  0  0  0  0  0
   -9.0034   -1.9658    1.2307 H   0  0  0  0  0  0  0  0  0  0  0  0
   -1.2773   -0.6978    2.7702 H   0  0  0  0  0  0  0  0  0  0  0  0
   -4.9358    1.9284   -2.4175 H   0  0  0  0  0  0  0  0  0  0  0  0
   -6.2756    1.6706    1.7813 H   0  0  0  0  0  0  0  0  0  0  0  0
    0.5684   -1.4322   -0.2289 H   0  0  0  0  0  0  0  0  0  0  0  0
    0.3716    2.3585    1.8259 H   0  0  0  0  0  0  0  0  0  0  0  0
  -11.0564   -2.7424   -0.9080 H   0  0  0  0  0  0  0  0  0  0  0  0
  -10.8817   -3.4859    0.6753 H   0  0  0  0  0  0  0  0  0  0  0  0
  -11.4155   -1.7955    0.5559 H   0  0  0  0  0  0  0  0  0  0  0  0
    2.9545   -1.3051   -0.2867 H   0  0  0  0  0  0  0  0  0  0  0  0
    2.8204    2.5106    1.7781 H   0  0  0  0  0  0  0  0  0  0  0  0
   -0.4775    2.3032   -2.6904 H   0  0  0  0  0  0  0  0  0  0  0  0
    0.2617    1.5837   -1.2930 H   0  0  0  0  0  0  0  0  0  0  0  0
   -8.6233   -3.9324    0.1715 H   0  0  0  0  0  0  0  0  0  0  0  0
    4.8714    1.5490    1.1494 H   0  0  0  0  0  0  0  0  0  0  0  0
    6.8127    1.1708    0.8396 H   0  0  0  0  0  0  0  0  0  0  0  0
    9.1748    1.2552    0.7565 H   0  0  0  0  0  0  0  0  0  0  0  0
    7.0192   -2.1073   -0.9414 H   0  0  0  0  0  0  0  0  0  0  0  0
    9.1031   -3.1120   -1.5998 H   0  0  0  0  0  0  0  0  0  0  0  0
   11.2621   -1.9926   -1.1145 H   0  0  0  0  0  0  0  0  0  0  0  0
  1 12  1  0  0  0  0
  1 21  1  0  0  0  0
  2 34  1  0  0  0  0
  3 20  1  0  0  0  0
  3 53  1  0  0  0  0
  4 30  2  0  0  0  0
  5  6  1  0  0  0  0
  5 16  1  0  0  0  0
  5 17  1  0  0  0  0
  6 23  2  0  0  0  0
  7 19  2  0  0  0  0
  7 22  1  0  0  0  0
  8 19  1  0  0  0  0
  8 51  1  0  0  0  0
  8 52  1  0  0  0  0
  9 27  1  0  0  0  0
  9 30  1  0  0  0  0
  9 54  1  0  0  0  0
 10 30  1  0  0  0  0
 10 31  1  0  0  0  0
 10 55  1  0  0  0  0
 11 12  2  0  0  0  0
 11 14  1  0  0  0  0
 11 19  1  0  0  0  0
 12 13  1  0  0  0  0
 13 15  1  0  0  0  0
 13 22  2  0  0  0  0
 14 18  1  0  0  0  0
 14 21  2  0  0  0  0
 15 17  2  0  0  0  0
 15 23  1  0  0  0  0
 16 20  1  0  0  0  0
 16 37  1  0  0  0  0
 16 38  1  0  0  0  0
 17 39  1  0  0  0  0
 18 24  2  0  0  0  0
 18 25  1  0  0  0  0
 20 26  1  0  0  0  0
 20 40  1  0  0  0  0
 21 41  1  0  0  0  0
 22 42  1  0  0  0  0
 23 43  1  0  0  0  0
 24 28  1  0  0  0  0
 24 44  1  0  0  0  0
 25 29  2  0  0  0  0
 25 45  1  0  0  0  0
 26 46  1  0  0  0  0
 26 47  1  0  0  0  0
 26 48  1  0  0  0  0
 27 28  2  0  0  0  0
 27 29  1  0  0  0  0
 28 49  1  0  0  0  0
 29 50  1  0  0  0  0
 31 32  2  0  0  0  0
 31 33  1  0  0  0  0
 32 34  1  0  0  0  0
 32 56  1  0  0  0  0
 33 35  2  0  0  0  0
 33 57  1  0  0  0  0
 34 36  2  0  0  0  0
 35 36  1  0  0  0  0
 35 58  1  0  0  0  0
 36 59  1  0  0  0  0
M  END
> <PUBCHEM_COMPOUND_CID>
49830365

> <PUBCHEM_CONFORMER_RMSD>
1

> <PUBCHEM_CONFORMER_DIVERSEORDER>
1
74
13
27
80
20
60
44
77
71
41
5
78
23
65
19
73
45
52
50
32
22
43
57
34
8
28
46
47
63
75
18
66
16
14
69
35
70
15
61
42
81
26
31
59
17
25
53
56
67
51
72
76
12
30
21
40
62
58
4
29
48
64
38
79
2
33
36
3
68
10
39
54
55
11
6
37
49
24
7
9

> <PUBCHEM_MMFF94_PARTIAL_CHARGES>
51
1 -0.08
10 -0.55
12 0.04
13 0.05
14 -0.05
15 -0.05
16 0.26
17 -0.3
18 0.05
19 0.41
2 -0.19
20 0.28
21 -0.11
22 0.16
23 0.14
24 -0.15
25 -0.15
27 0.12
28 -0.15
29 -0.15
3 -0.68
30 0.69
31 0.12
32 -0.15
33 -0.15
34 0.19
35 -0.15
36 -0.15
39 0.15
4 -0.57
41 0.15
42 0.15
43 0.15
44 0.15
45 0.15
49 0.15
5 0.31
50 0.15
51 0.4
52 0.4
53 0.4
54 0.37
55 0.37
56 0.15
57 0.15
58 0.15
59 0.15
6 -0.71
7 -0.62
8 -0.9
9 -0.55

> <PUBCHEM_EFFECTIVE_ROTOR_COUNT>
8

> <PUBCHEM_PHARMACOPHORE_FEATURES>
13
1 10 donor
1 3 acceptor
1 3 donor
1 4 acceptor
1 6 acceptor
1 8 donor
1 9 donor
3 7 8 19 cation
5 1 11 12 14 21 rings
5 5 6 15 17 23 rings
6 18 24 25 27 28 29 rings
6 31 32 33 34 35 36 rings
6 7 11 12 13 19 22 rings

> <PUBCHEM_HEAVY_ATOM_COUNT>
36

> <PUBCHEM_ATOM_DEF_STEREO_COUNT>
0

> <PUBCHEM_ATOM_UDEF_STEREO_COUNT>
1

> <PUBCHEM_BOND_DEF_STEREO_COUNT>
0

> <PUBCHEM_BOND_UDEF_STEREO_COUNT>
0

> <PUBCHEM_ISOTOPIC_ATOM_COUNT>
0

> <PUBCHEM_COMPONENT_COUNT>
1

> <PUBCHEM_CACTVS_TAUTO_COUNT>
6

> <PUBCHEM_CONFORMER_ID>
02F859DD00000001

> <PUBCHEM_MMFF94_ENERGY>
102.0554

> <PUBCHEM_FEATURE_SELFOVERLAP>
66.087

> <PUBCHEM_SHAPE_FINGERPRINT>
10 15 9583513214612496200
10076449 9 18334013873865838960
10299344 5 16200428049658640548
10429389 143 11530476727905065943
10674148 151 11815894561307061487
11135926 11 15697990791522970044
11315181 36 14634876323326479393
11408170 108 16056609703862947054
11456790 92 12247676106377275123
11476731 38 17846497046594841304
12013929 2 18342170052434146397
12082328 90 18201719497178305492
12522641 33 13984662538993017496
12559415 141 18131362916132519878
12664476 115 16877661267082280164
12758862 11 17967256425141491592
13553643 46 11455885845696891298
14118638 360 17313381163691586840
14202775 3 18130794438861864062
14251764 46 8070024467672134008
14344974 52 18040715905279020228
14395042 24 12895078435347124747
15065858 18 18343016658806393804
15247644 1 18412827988289751526
15461852 350 18113899355524947415
15510794 2 18342178877848076530
15538507 75 12607412053727187596
1577012 14 16226321495961998244
16067689 302 17917435289739320078
16728433 110 18131629011115497760
1754911 235 14779267518347296243
1818759 1 17489870423664678670
19315958 150 11455894671959828308
20105231 36 18202562895526818943
21792934 111 8286198350031106302
21792961 116 18187931630261540392
232437 2 18060701684860228170
24771293 8 14996565036515954774
249057 3 17313110761166750216
306946 40 8286206037284068419
335352 9 16805040731221747193
4017518 198 18334013896127257171
4149490 64 17560515217758244530
4516262 110 13623530152199221328
45377200 153 18337670914497614547
4760202 170 13479140120545128918
4874694 18 17167582679665340962
5028188 123 18260828186041995805
54039377 194 17775565338402395929
57676310 188 18260825982539878275
636775 8 18186521034379647307
6691757 9 16515697614964457793
67123 10 18202565069080535216
9663363 56 17386008356809430453
9937071 3 17346602963053640262

> <PUBCHEM_SHAPE_MULTIPOLES>
695.81
40.38
2.08
1.48
44.91
1.23
0.18
29.06
5.94
-3.28
0.48
-1.3
-0.65
2.13

> <PUBCHEM_SHAPE_SELFOVERLAP>
1526.291

> <PUBCHEM_SHAPE_VOLUME>
382.1

> <PUBCHEM_COORDINATE_TYPE>
2
5
10

$$$$
