24765714
  -OEChem-10052120433D

 76 80  0     0  0  0  0  0  0999 V2000
    7.2224    2.4816   -0.8235 O   0  0  0  0  0  0  0  0  0  0  0  0
   -5.3077    1.7955    2.1988 O   0  0  0  0  0  0  0  0  0  0  0  0
   -1.5886   -2.3724    0.2598 O   0  0  0  0  0  0  0  0  0  0  0  0
    5.1004   -0.3017   -0.1914 N   0  0  0  0  0  0  0  0  0  0  0  0
    6.2468    0.5038   -0.1731 N   0  0  0  0  0  0  0  0  0  0  0  0
    4.9160    2.4081   -0.6993 N   0  0  0  0  0  0  0  0  0  0  0  0
   -8.5422   -0.2197   -1.8964 N   0  0  0  0  0  0  0  0  0  0  0  0
    2.7552   -0.3928    0.2926 N   0  0  0  0  0  0  0  0  0  0  0  0
   -5.9256    0.1750    0.6596 N   0  0  0  0  0  0  0  0  0  0  0  0
    1.3794    1.5635    0.0998 N   0  0  0  0  0  0  0  0  0  0  0  0
    0.4516   -0.4945    0.7243 N   0  0  0  0  0  0  0  0  0  0  0  0
    5.1846   -1.7332   -0.0604 C   0  0  0  0  0  0  0  0  0  0  0  0
    4.6587   -2.1993    1.2889 C   0  0  0  0  0  0  0  0  0  0  0  0
    4.2652   -2.4451   -1.0423 C   0  0  0  0  0  0  0  0  0  0  0  0
    4.3262   -3.6710    1.0683 C   0  0  0  0  0  0  0  0  0  0  0  0
    4.0719   -3.8291   -0.4318 C   0  0  0  0  0  0  0  0  0  0  0  0
    3.8561    0.3269   -0.0504 C   0  0  0  0  0  0  0  0  0  0  0  0
   -7.3479    0.4298    0.7096 C   0  0  0  0  0  0  0  0  0  0  0  0
   -8.1472   -0.8521    0.4644 C   0  0  0  0  0  0  0  0  0  0  0  0
   -7.7524    1.5032   -0.3034 C   0  0  0  0  0  0  0  0  0  0  0  0
    3.7553    1.6835   -0.3298 C   0  0  0  0  0  0  0  0  0  0  0  0
    7.5084   -0.1188    0.1980 C   0  0  0  0  0  0  0  0  0  0  0  0
    6.1924    1.8350   -0.5977 C   0  0  0  0  0  0  0  0  0  0  0  0
   -8.0928   -1.2943   -1.0014 C   0  0  0  0  0  0  0  0  0  0  0  0
   -7.7116    0.9823   -1.7435 C   0  0  0  0  0  0  0  0  0  0  0  0
    2.4877    2.2477   -0.2437 C   0  0  0  0  0  0  0  0  0  0  0  0
    8.1755   -0.7739   -0.9937 C   0  0  0  0  0  0  0  0  0  0  0  0
   -8.5344   -0.6742   -3.2866 C   0  0  0  0  0  0  0  0  0  0  0  0
    4.7795    3.8031   -1.1102 C   0  0  0  0  0  0  0  0  0  0  0  0
    1.5826    0.2644    0.3529 C   0  0  0  0  0  0  0  0  0  0  0  0
   -4.9854    0.8834    1.4170 C   0  0  0  0  0  0  0  0  0  0  0  0
   -3.5875    0.5252    1.2368 C   0  0  0  0  0  0  0  0  0  0  0  0
   -0.9056   -0.1614    0.8927 C   0  0  0  0  0  0  0  0  0  0  0  0
   -3.2443   -0.7641    0.8299 C   0  0  0  0  0  0  0  0  0  0  0  0
   -2.5896    1.4712    1.4717 C   0  0  0  0  0  0  0  0  0  0  0  0
   -1.9034   -1.1074    0.6579 C   0  0  0  0  0  0  0  0  0  0  0  0
   -1.2487    1.1279    1.2997 C   0  0  0  0  0  0  0  0  0  0  0  0
   -1.5009   -2.6064   -1.1440 C   0  0  0  0  0  0  0  0  0  0  0  0
    6.1814   -2.1544   -0.1965 H   0  0  0  0  0  0  0  0  0  0  0  0
    3.7878   -1.6993    1.7098 H   0  0  0  0  0  0  0  0  0  0  0  0
    5.4355   -2.0973    2.0567 H   0  0  0  0  0  0  0  0  0  0  0  0
    4.7368   -2.5191   -2.0297 H   0  0  0  0  0  0  0  0  0  0  0  0
    3.2879   -1.9956   -1.2232 H   0  0  0  0  0  0  0  0  0  0  0  0
    5.1665   -4.3053    1.3732 H   0  0  0  0  0  0  0  0  0  0  0  0
    3.4558   -3.9755    1.6588 H   0  0  0  0  0  0  0  0  0  0  0  0
    3.0677   -4.2161   -0.6329 H   0  0  0  0  0  0  0  0  0  0  0  0
    4.7884   -4.5406   -0.8583 H   0  0  0  0  0  0  0  0  0  0  0  0
   -7.5787    0.7975    1.7168 H   0  0  0  0  0  0  0  0  0  0  0  0
   -9.1947   -0.6799    0.7450 H   0  0  0  0  0  0  0  0  0  0  0  0
   -7.7757   -1.6623    1.1035 H   0  0  0  0  0  0  0  0  0  0  0  0
   -7.1021    2.3820   -0.2161 H   0  0  0  0  0  0  0  0  0  0  0  0
   -8.7725    1.8408   -0.0774 H   0  0  0  0  0  0  0  0  0  0  0  0
    7.3578   -0.8205    1.0245 H   0  0  0  0  0  0  0  0  0  0  0  0
    8.1778    0.6578    0.5874 H   0  0  0  0  0  0  0  0  0  0  0  0
   -7.0790   -1.6247   -1.2611 H   0  0  0  0  0  0  0  0  0  0  0  0
   -8.7506   -2.1650   -1.1142 H   0  0  0  0  0  0  0  0  0  0  0  0
   -6.6733    0.7821   -2.0388 H   0  0  0  0  0  0  0  0  0  0  0  0
   -8.0865    1.7762   -2.4012 H   0  0  0  0  0  0  0  0  0  0  0  0
   -5.6031   -0.4822   -0.0423 H   0  0  0  0  0  0  0  0  0  0  0  0
    2.3027    3.2974   -0.4445 H   0  0  0  0  0  0  0  0  0  0  0  0
    9.0602   -1.3319   -0.6709 H   0  0  0  0  0  0  0  0  0  0  0  0
    8.5113   -0.0101   -1.7047 H   0  0  0  0  0  0  0  0  0  0  0  0
    7.5286   -1.4513   -1.5554 H   0  0  0  0  0  0  0  0  0  0  0  0
   -7.5301   -0.9526   -3.6258 H   0  0  0  0  0  0  0  0  0  0  0  0
   -9.1934   -1.5405   -3.4120 H   0  0  0  0  0  0  0  0  0  0  0  0
   -8.9177    0.1092   -3.9498 H   0  0  0  0  0  0  0  0  0  0  0  0
    4.4321    4.3976   -0.2595 H   0  0  0  0  0  0  0  0  0  0  0  0
    4.0723    3.8738   -1.9426 H   0  0  0  0  0  0  0  0  0  0  0  0
    5.7353    4.2155   -1.4452 H   0  0  0  0  0  0  0  0  0  0  0  0
    0.6472   -1.4903    0.7659 H   0  0  0  0  0  0  0  0  0  0  0  0
   -3.9934   -1.5344    0.6682 H   0  0  0  0  0  0  0  0  0  0  0  0
   -2.8360    2.4794    1.7948 H   0  0  0  0  0  0  0  0  0  0  0  0
   -0.5071    1.8826    1.5386 H   0  0  0  0  0  0  0  0  0  0  0  0
   -2.4678   -2.4235   -1.6235 H   0  0  0  0  0  0  0  0  0  0  0  0
   -0.7318   -1.9723   -1.5961 H   0  0  0  0  0  0  0  0  0  0  0  0
   -1.2259   -3.6531   -1.3000 H   0  0  0  0  0  0  0  0  0  0  0  0
  1 23  2  0  0  0  0
  2 31  2  0  0  0  0
  3 36  1  0  0  0  0
  3 38  1  0  0  0  0
  4  5  1  0  0  0  0
  4 12  1  0  0  0  0
  4 17  1  0  0  0  0
  5 22  1  0  0  0  0
  5 23  1  0  0  0  0
  6 21  1  0  0  0  0
  6 23  1  0  0  0  0
  6 29  1  0  0  0  0
  7 24  1  0  0  0  0
  7 25  1  0  0  0  0
  7 28  1  0  0  0  0
  8 17  2  0  0  0  0
  8 30  1  0  0  0  0
  9 18  1  0  0  0  0
  9 31  1  0  0  0  0
  9 59  1  0  0  0  0
 10 26  1  0  0  0  0
 10 30  2  0  0  0  0
 11 30  1  0  0  0  0
 11 33  1  0  0  0  0
 11 70  1  0  0  0  0
 12 13  1  0  0  0  0
 12 14  1  0  0  0  0
 12 39  1  0  0  0  0
 13 15  1  0  0  0  0
 13 40  1  0  0  0  0
 13 41  1  0  0  0  0
 14 16  1  0  0  0  0
 14 42  1  0  0  0  0
 14 43  1  0  0  0  0
 15 16  1  0  0  0  0
 15 44  1  0  0  0  0
 15 45  1  0  0  0  0
 16 46  1  0  0  0  0
 16 47  1  0  0  0  0
 17 21  1  0  0  0  0
 18 19  1  0  0  0  0
 18 20  1  0  0  0  0
 18 48  1  0  0  0  0
 19 24  1  0  0  0  0
 19 49  1  0  0  0  0
 19 50  1  0  0  0  0
 20 25  1  0  0  0  0
 20 51  1  0  0  0  0
 20 52  1  0  0  0  0
 21 26  2  0  0  0  0
 22 27  1  0  0  0  0
 22 53  1  0  0  0  0
 22 54  1  0  0  0  0
 24 55  1  0  0  0  0
 24 56  1  0  0  0  0
 25 57  1  0  0  0  0
 25 58  1  0  0  0  0
 26 60  1  0  0  0  0
 27 61  1  0  0  0  0
 27 62  1  0  0  0  0
 27 63  1  0  0  0  0
 28 64  1  0  0  0  0
 28 65  1  0  0  0  0
 28 66  1  0  0  0  0
 29 67  1  0  0  0  0
 29 68  1  0  0  0  0
 29 69  1  0  0  0  0
 31 32  1  0  0  0  0
 32 34  2  0  0  0  0
 32 35  1  0  0  0  0
 33 36  2  0  0  0  0
 33 37  1  0  0  0  0
 34 36  1  0  0  0  0
 34 71  1  0  0  0  0
 35 37  2  0  0  0  0
 35 72  1  0  0  0  0
 37 73  1  0  0  0  0
 38 74  1  0  0  0  0
 38 75  1  0  0  0  0
 38 76  1  0  0  0  0
M  END
> <PUBCHEM_COMPOUND_CID>
24765714

> <PUBCHEM_CONFORMER_RMSD>
1.2

> <PUBCHEM_CONFORMER_DIVERSEORDER>
1
2
40
63
24
73
71
12
39
11
80
69
84
15
56
21
55
23
26
43
79
90
81
76
49
68
57
42
28
62
78
67
87
4
66
33
17
14
82
60
58
31
32
64
93
89
37
61
29
10
51
52
46
30
34
13
3
54
18
72
94
36
65
44
25
59
47
85
41
38
86
77
5
83
92
19
74
22
27
7
88
70
53
50
91
8
35
6
48
20
16
95
45
75
9

> <PUBCHEM_MMFF94_PARTIAL_CHARGES>
37
1 -0.57
10 -0.62
11 -0.6
12 0.37
17 0.41
18 0.3
2 -0.57
21 0.12
22 0.3
23 0.69
24 0.27
25 0.27
26 0.16
28 0.27
29 0.3
3 -0.36
30 0.72
31 0.54
32 0.09
33 0.1
34 -0.15
35 -0.15
36 0.08
37 -0.15
38 0.28
4 -0.49
5 -0.34
59 0.37
6 -0.48
60 0.15
7 -0.81
70 0.4
71 0.15
72 0.15
73 0.15
8 -0.62
9 -0.73

> <PUBCHEM_EFFECTIVE_ROTOR_COUNT>
10.8

> <PUBCHEM_PHARMACOPHORE_FEATURES>
12
1 1 acceptor
1 11 donor
1 2 acceptor
1 3 acceptor
1 7 cation
1 9 donor
4 8 10 11 30 cation
5 12 13 14 15 16 rings
6 32 33 34 35 36 37 rings
6 4 5 6 17 21 23 rings
6 7 18 19 20 24 25 rings
6 8 10 17 21 26 30 rings

> <PUBCHEM_HEAVY_ATOM_COUNT>
38

> <PUBCHEM_ATOM_DEF_STEREO_COUNT>
0

> <PUBCHEM_ATOM_UDEF_STEREO_COUNT>
0

> <PUBCHEM_BOND_DEF_STEREO_COUNT>
0

> <PUBCHEM_BOND_UDEF_STEREO_COUNT>
0

> <PUBCHEM_ISOTOPIC_ATOM_COUNT>
0

> <PUBCHEM_COMPONENT_COUNT>
1

> <PUBCHEM_CACTVS_TAUTO_COUNT>
7

> <PUBCHEM_CONFORMER_ID>
0179E51200000001

> <PUBCHEM_MMFF94_ENERGY>
135.4946

> <PUBCHEM_FEATURE_SELFOVERLAP>
60.929

> <PUBCHEM_SHAPE_FINGERPRINT>
10162869 55 18411978079265624240
10554248 39 18408887313319732501
10951579 204 16515964731949420117
11693224 71 18268982262683628968
11828532 37 15410891886150895942
11973864 48 17969233386309561155
12717326 120 15984244361926723239
12838862 33 18408035222300258146
13008946 170 18270677688292206216
13811026 1 18259710007831873121
14068700 675 17346598591320551329
14117953 113 18411428293962160406
14118638 360 18342747281977479848
15064986 266 18335701621527949993
15183329 4 18413392020869258745
15461852 350 17131836464796058857
1577012 14 18201729418695152217
20511986 3 18272369802453286616
21033648 29 16515687745287457307
23081809 10 18059864930873731761
23522609 53 17844557481512321217
23576562 1 17970063551626217821
249057 25 18130231463116916553
255183 451 18054240826298983726
335352 9 18337121116292306348
3633792 109 18335704910201898017
4073 2 18115039613755627826
4516262 110 18335139847435998140
504579 68 18272934942148802509
5470011 282 18410006646865001903
99344 41 18412831252801538771
9962374 69 18271524179159415082

> <PUBCHEM_SHAPE_MULTIPOLES>
724.57
28.47
3.58
1.76
36.47
1.02
-0.77
-1.84
-13
-7.62
-0.58
4.45
0.02
-2.94

> <PUBCHEM_SHAPE_SELFOVERLAP>
1545.665

> <PUBCHEM_SHAPE_VOLUME>
397.6

> <PUBCHEM_COORDINATE_TYPE>
2
5
10

$$$$
