49830722
  -OEChem-10052120433D

 47 49  0     0  0  0  0  0  0999 V2000
   -8.0363    0.2977   -0.0039 F   0  0  0  0  0  0  0  0  0  0  0  0
   -6.9174    0.6987    1.8168 F   0  0  0  0  0  0  0  0  0  0  0  0
   -6.5630    1.8962    0.0437 F   0  0  0  0  0  0  0  0  0  0  0  0
    8.5500   -1.8358   -0.4993 O   0  0  0  0  0  0  0  0  0  0  0  0
    7.6340   -1.4006    1.5258 O   0  0  0  0  0  0  0  0  0  0  0  0
   -1.4519    0.1689   -0.3591 O   0  0  0  0  0  0  0  0  0  0  0  0
    4.8763    0.7897   -0.4291 N   0  0  0  0  0  0  0  0  0  0  0  0
    6.5887   -0.4300   -0.4912 C   0  0  0  0  0  0  0  0  0  0  0  0
    5.0932   -0.6648   -0.2351 C   0  0  0  0  0  0  0  0  0  0  0  0
    6.2936    1.0109   -0.0508 C   0  0  0  0  0  0  0  0  0  0  0  0
    3.9987    1.3027    0.6233 C   0  0  0  0  0  0  0  0  0  0  0  0
    7.6176   -1.2546    0.3058 C   0  0  0  0  0  0  0  0  0  0  0  0
    2.5587    1.0161    0.3501 C   0  0  0  0  0  0  0  0  0  0  0  0
    1.8446    1.7587   -0.5904 C   0  0  0  0  0  0  0  0  0  0  0  0
    1.9280   -0.0110    1.0524 C   0  0  0  0  0  0  0  0  0  0  0  0
    0.5000    1.4743   -0.8283 C   0  0  0  0  0  0  0  0  0  0  0  0
    0.5833   -0.2952    0.8146 C   0  0  0  0  0  0  0  0  0  0  0  0
    2.4987    2.8629   -1.3542 C   0  0  0  0  0  0  0  0  0  0  0  0
   -0.1308    0.4475   -0.1259 C   0  0  0  0  0  0  0  0  0  0  0  0
   -2.0258   -0.8912    0.3959 C   0  0  0  0  0  0  0  0  0  0  0  0
   -3.4461   -1.0813   -0.0171 C   0  0  0  0  0  0  0  0  0  0  0  0
   -4.4212   -0.1751    0.3997 C   0  0  0  0  0  0  0  0  0  0  0  0
   -3.7996   -2.1658   -0.8203 C   0  0  0  0  0  0  0  0  0  0  0  0
   -5.7496   -0.3530    0.0134 C   0  0  0  0  0  0  0  0  0  0  0  0
   -6.1031   -1.4375   -0.7899 C   0  0  0  0  0  0  0  0  0  0  0  0
   -5.1280   -2.3439   -1.2064 C   0  0  0  0  0  0  0  0  0  0  0  0
   -6.7925    0.6156    0.4593 C   0  0  0  0  0  0  0  0  0  0  0  0
    6.8114   -0.4708   -1.5702 H   0  0  0  0  0  0  0  0  0  0  0  0
    4.8753   -1.0678    0.7626 H   0  0  0  0  0  0  0  0  0  0  0  0
    4.5934   -1.2967   -0.9764 H   0  0  0  0  0  0  0  0  0  0  0  0
    6.7986    1.7852   -0.6371 H   0  0  0  0  0  0  0  0  0  0  0  0
    6.4868    1.2046    1.0126 H   0  0  0  0  0  0  0  0  0  0  0  0
    4.2703    0.9187    1.6181 H   0  0  0  0  0  0  0  0  0  0  0  0
    4.1373    2.3878    0.7149 H   0  0  0  0  0  0  0  0  0  0  0  0
    2.4702   -0.5981    1.7892 H   0  0  0  0  0  0  0  0  0  0  0  0
   -0.0667    2.0464   -1.5589 H   0  0  0  0  0  0  0  0  0  0  0  0
    9.2006   -2.3592    0.0157 H   0  0  0  0  0  0  0  0  0  0  0  0
    0.1590   -1.1028    1.4009 H   0  0  0  0  0  0  0  0  0  0  0  0
    2.8630    3.6438   -0.6793 H   0  0  0  0  0  0  0  0  0  0  0  0
    3.3245    2.4854   -1.9644 H   0  0  0  0  0  0  0  0  0  0  0  0
    1.7945    3.3455   -2.0417 H   0  0  0  0  0  0  0  0  0  0  0  0
   -1.4815   -1.8286    0.2213 H   0  0  0  0  0  0  0  0  0  0  0  0
   -2.0090   -0.6598    1.4694 H   0  0  0  0  0  0  0  0  0  0  0  0
   -4.1474    0.6713    1.0254 H   0  0  0  0  0  0  0  0  0  0  0  0
   -3.0513   -2.8793   -1.1552 H   0  0  0  0  0  0  0  0  0  0  0  0
   -7.1319   -1.5942   -1.1019 H   0  0  0  0  0  0  0  0  0  0  0  0
   -5.4031   -3.1880   -1.8321 H   0  0  0  0  0  0  0  0  0  0  0  0
  1 27  1  0  0  0  0
  2 27  1  0  0  0  0
  3 27  1  0  0  0  0
  4 12  1  0  0  0  0
  4 37  1  0  0  0  0
  5 12  2  0  0  0  0
  6 19  1  0  0  0  0
  6 20  1  0  0  0  0
  7  9  1  0  0  0  0
  7 10  1  0  0  0  0
  7 11  1  0  0  0  0
  8  9  1  0  0  0  0
  8 10  1  0  0  0  0
  8 12  1  0  0  0  0
  8 28  1  0  0  0  0
  9 29  1  0  0  0  0
  9 30  1  0  0  0  0
 10 31  1  0  0  0  0
 10 32  1  0  0  0  0
 11 13  1  0  0  0  0
 11 33  1  0  0  0  0
 11 34  1  0  0  0  0
 13 14  2  0  0  0  0
 13 15  1  0  0  0  0
 14 16  1  0  0  0  0
 14 18  1  0  0  0  0
 15 17  2  0  0  0  0
 15 35  1  0  0  0  0
 16 19  2  0  0  0  0
 16 36  1  0  0  0  0
 17 19  1  0  0  0  0
 17 38  1  0  0  0  0
 18 39  1  0  0  0  0
 18 40  1  0  0  0  0
 18 41  1  0  0  0  0
 20 21  1  0  0  0  0
 20 42  1  0  0  0  0
 20 43  1  0  0  0  0
 21 22  2  0  0  0  0
 21 23  1  0  0  0  0
 22 24  1  0  0  0  0
 22 44  1  0  0  0  0
 23 26  2  0  0  0  0
 23 45  1  0  0  0  0
 24 25  2  0  0  0  0
 24 27  1  0  0  0  0
 25 26  1  0  0  0  0
 25 46  1  0  0  0  0
 26 47  1  0  0  0  0
M  END
> <PUBCHEM_COMPOUND_CID>
49830722

> <PUBCHEM_CONFORMER_RMSD>
1

> <PUBCHEM_CONFORMER_DIVERSEORDER>
1
108
130
103
171
55
202
70
8
168
166
20
42
138
106
123
120
160
146
191
88
34
226
197
152
48
51
218
172
228
19
173
223
214
74
198
119
80
97
137
31
94
73
116
194
98
17
199
217
77
230
121
185
136
40
110
99
33
72
179
164
76
124
131
159
90
186
27
221
117
129
45
63
68
29
149
225
190
219
178
13
140
139
38
26
150
114
203
11
227
91
101
196
58
37
115
182
46
183
187
10
143
148
128
53
193
176
81
220
144
32
43
161
158
22
211
154
167
39
102
79
69
25
162
132
61
177
127
156
170
89
50
208
157
133
145
113
75
112
188
118
215
125
57
93
209
207
184
200
3
210
78
109
62
24
23
7
54
2
189
87
180
205
86
142
195
153
36
204
105
147
222
65
141
122
35
6
224
212
213
56
169
49
216
9
155
59
111
151
126
82
14
135
201
181
92
30
71
5
85
12
134
84
66
192
96
18
47
107
83
28
52
174
165
163
95
44
67
4
41
206
100
15
64
60
16
21
104
175
229

> <PUBCHEM_MMFF94_PARTIAL_CHARGES>
35
1 -0.34
10 0.21
11 0.41
12 0.67
13 -0.14
14 -0.14
15 -0.15
16 -0.15
17 -0.15
18 0.14
19 0.08
2 -0.34
20 0.42
21 -0.14
22 -0.15
23 -0.15
24 -0.14
25 -0.15
26 -0.15
27 1.16
3 -0.34
35 0.15
36 0.15
37 0.5
38 0.15
4 -0.65
44 0.15
45 0.15
46 0.15
47 0.15
5 -0.57
6 -0.36
7 -0.69
8 0.05
9 0.21

> <PUBCHEM_EFFECTIVE_ROTOR_COUNT>
7.8

> <PUBCHEM_PHARMACOPHORE_FEATURES>
8
1 4 acceptor
1 5 acceptor
1 6 acceptor
1 7 cation
3 4 5 12 anion
4 7 8 9 10 rings
6 13 14 15 16 17 19 rings
6 21 22 23 24 25 26 rings

> <PUBCHEM_HEAVY_ATOM_COUNT>
27

> <PUBCHEM_ATOM_DEF_STEREO_COUNT>
0

> <PUBCHEM_ATOM_UDEF_STEREO_COUNT>
0

> <PUBCHEM_BOND_DEF_STEREO_COUNT>
0

> <PUBCHEM_BOND_UDEF_STEREO_COUNT>
0

> <PUBCHEM_ISOTOPIC_ATOM_COUNT>
0

> <PUBCHEM_COMPONENT_COUNT>
1

> <PUBCHEM_CACTVS_TAUTO_COUNT>
1

> <PUBCHEM_CONFORMER_ID>
02F85B4200000001

> <PUBCHEM_MMFF94_ENERGY>
73.9994

> <PUBCHEM_FEATURE_SELFOVERLAP>
40.656

> <PUBCHEM_SHAPE_FINGERPRINT>
10 15 14692567737295956634
100830 39 18341895143687452273
10299344 5 18408886239425083234
10674148 151 18187363221225350856
11273773 118 16950555529339254261
11315181 36 17131557236466948507
11331351 85 18407761438766839685
11719270 70 17203332217272356846
11796584 16 17775009028447510550
11973863 73 17750505196662918712
11991303 11 15502663740717898986
12236239 1 18341332296580435653
12592606 108 18408040736453054223
13885169 127 18202001010266052249
13914758 101 18131074822525653265
14216079 64 18408885110349909318
14251752 14 18130790070731443145
14347424 109 18131066065741815224
14856354 85 15574720209932901523
15021287 119 18186527613874126909
15183329 4 18187075165826115591
15475509 8 18187086152679447988
1577012 14 18339647857314202269
18335252 98 12107786289577700225
18643901 69 18261396607741385662
20105231 36 17240489104399317371
21130935 74 18269834371156940690
21267235 1 18040156223294635757
21315763 28 18341048618644029455
21781051 124 15791735209179148096
21792961 116 15864061058062636384
22224240 67 12031788059293874948
23035841 295 18408319994994323682
23081809 10 18340208617050431077
23522609 53 18192458404763203189
23559900 14 18263639748099207128
23569917 315 18337113483899272151
23569943 247 18189044322743866218
24180151 214 11818988557174297580
24771293 8 18118113900281854140
28498 318 18411419488635423654
3004659 81 18411978091580768690
3103668 31 17968933076614653372
34797466 226 13695589936591387562
4073 2 18263083378183707706
4258327 124 11743542354498920506
4339292 15 15840975790132095023
444769 64 18408326588333632179
5080951 261 14835834149824537479
5219985 9 18333730209336723444
5381727 24 18272090505610687107
559249 180 18273214227246541343
59755656 215 18202570553152444255
59755656 520 17603304886566132683
6126387 218 18201716245998384498
9689198 14 13695868125749532318

> <PUBCHEM_SHAPE_MULTIPOLES>
511.24
25.16
2.25
1.11
4.21
0.24
0.11
-8.73
2.1
0.59
-0.8
-0.2
0.03
-2.09

> <PUBCHEM_SHAPE_SELFOVERLAP>
1094.523

> <PUBCHEM_SHAPE_VOLUME>
286.3

> <PUBCHEM_COORDINATE_TYPE>
2
5
10

$$$$
