15282555
  -OEChem-10062122023D

 80 83  0     0  0  0  0  0  0999 V2000
    1.1811   -4.1766   -4.3089 Br  0  0  0  0  0  0  0  0  0  0  0  0
   -1.0209    4.1828   -4.3497 Br  0  0  0  0  0  0  0  0  0  0  0  0
   -2.6716    4.0360    0.9472 Br  0  0  0  0  0  0  0  0  0  0  0  0
    2.5557   -4.0325    0.9918 Br  0  0  0  0  0  0  0  0  0  0  0  0
    1.5621   -1.1132   -4.0325 O   0  0  0  0  0  0  0  0  0  0  0  0
   -1.4103    1.1197   -4.0805 O   0  0  0  0  0  0  0  0  0  0  0  0
   -0.8634   -1.7135    1.8693 O   0  0  0  0  0  0  0  0  0  0  0  0
    0.8103    1.7403    1.8893 O   0  0  0  0  0  0  0  0  0  0  0  0
   -1.1203   -4.6192    2.4571 O   0  0  0  0  0  0  0  0  0  0  0  0
    1.1158    4.6444    2.5019 O   0  0  0  0  0  0  0  0  0  0  0  0
   -3.9522    2.5127   -1.4562 O   0  0  0  0  0  0  0  0  0  0  0  0
    3.9205   -2.5203   -1.3717 O   0  0  0  0  0  0  0  0  0  0  0  0
   -3.0320   -2.3024    2.5505 N   0  0  0  0  0  0  0  0  0  0  0  0
    2.9692    2.2940    2.6285 N   0  0  0  0  0  0  0  0  0  0  0  0
   -1.5412   -4.6304    1.1276 N   0  0  0  0  0  0  0  0  0  0  0  0
    1.5616    4.6517    1.1806 N   0  0  0  0  0  0  0  0  0  0  0  0
   -0.1037   -0.7037   -2.3701 C   0  0  0  0  0  0  0  0  0  0  0  0
    0.2029    0.7129   -2.3664 C   0  0  0  0  0  0  0  0  0  0  0  0
   -1.4155   -2.5406   -1.5087 C   0  0  0  0  0  0  0  0  0  0  0  0
    1.4874    2.5511   -1.4675 C   0  0  0  0  0  0  0  0  0  0  0  0
   -1.1033   -1.1811   -1.5223 C   0  0  0  0  0  0  0  0  0  0  0  0
    1.1757    1.1917   -1.4888 C   0  0  0  0  0  0  0  0  0  0  0  0
   -2.4951   -3.0564   -0.5934 C   0  0  0  0  0  0  0  0  0  0  0  0
    2.5276    3.0632   -0.5294 C   0  0  0  0  0  0  0  0  0  0  0  0
    0.5835   -1.5855   -3.2043 C   0  0  0  0  0  0  0  0  0  0  0  0
   -0.4579    1.5934   -3.2230 C   0  0  0  0  0  0  0  0  0  0  0  0
   -0.7282   -3.4224   -2.3427 C   0  0  0  0  0  0  0  0  0  0  0  0
    0.8264    3.4317   -2.3238 C   0  0  0  0  0  0  0  0  0  0  0  0
    0.2712   -2.9449   -3.1906 C   0  0  0  0  0  0  0  0  0  0  0  0
   -0.1462    2.9528   -3.2017 C   0  0  0  0  0  0  0  0  0  0  0  0
   -1.9489   -3.4590    0.7556 C   0  0  0  0  0  0  0  0  0  0  0  0
    1.9502    3.4730    0.8108 C   0  0  0  0  0  0  0  0  0  0  0  0
   -4.3951   -0.4115    3.3716 C   0  0  0  0  0  0  0  0  0  0  0  0
    4.2820    0.3800    3.4772 C   0  0  0  0  0  0  0  0  0  0  0  0
   -3.2102   -1.3431    3.6148 C   0  0  0  0  0  0  0  0  0  0  0  0
    3.1053    1.3284    3.6934 C   0  0  0  0  0  0  0  0  0  0  0  0
   -4.2721    0.3750    2.0897 C   0  0  0  0  0  0  0  0  0  0  0  0
    4.1804   -0.4001    2.1895 C   0  0  0  0  0  0  0  0  0  0  0  0
   -1.8824   -2.3809    1.7985 C   0  0  0  0  0  0  0  0  0  0  0  0
    1.8407    2.3925    1.8474 C   0  0  0  0  0  0  0  0  0  0  0  0
   -3.6442    1.6206    2.0922 C   0  0  0  0  0  0  0  0  0  0  0  0
    3.5342   -1.6361    2.1709 C   0  0  0  0  0  0  0  0  0  0  0  0
   -4.7872   -0.1440    0.9019 C   0  0  0  0  0  0  0  0  0  0  0  0
    4.7339    0.1152    1.0174 C   0  0  0  0  0  0  0  0  0  0  0  0
   -3.5314    2.3472    0.9068 C   0  0  0  0  0  0  0  0  0  0  0  0
    3.4412   -2.3567    0.9802 C   0  0  0  0  0  0  0  0  0  0  0  0
   -4.6746    0.5827   -0.2834 C   0  0  0  0  0  0  0  0  0  0  0  0
    4.6412   -0.6055   -0.1733 C   0  0  0  0  0  0  0  0  0  0  0  0
   -4.0466    1.8282   -0.2810 C   0  0  0  0  0  0  0  0  0  0  0  0
    3.9947   -1.8415   -0.1919 C   0  0  0  0  0  0  0  0  0  0  0  0
   -1.6404   -0.4976   -0.8683 H   0  0  0  0  0  0  0  0  0  0  0  0
    1.6911    0.5088   -0.8169 H   0  0  0  0  0  0  0  0  0  0  0  0
   -2.9799   -3.9315   -1.0429 H   0  0  0  0  0  0  0  0  0  0  0  0
   -3.2811   -2.3058   -0.4664 H   0  0  0  0  0  0  0  0  0  0  0  0
    3.0296    3.9374   -0.9627 H   0  0  0  0  0  0  0  0  0  0  0  0
    3.3123    2.3158   -0.3754 H   0  0  0  0  0  0  0  0  0  0  0  0
   -0.9746   -4.4817   -2.3260 H   0  0  0  0  0  0  0  0  0  0  0  0
    1.0716    4.4912   -2.3015 H   0  0  0  0  0  0  0  0  0  0  0  0
   -5.3255   -0.9940    3.3453 H   0  0  0  0  0  0  0  0  0  0  0  0
   -4.4995    0.2778    4.2187 H   0  0  0  0  0  0  0  0  0  0  0  0
    5.2214    0.9485    3.4772 H   0  0  0  0  0  0  0  0  0  0  0  0
    4.3543   -0.3139    4.3241 H   0  0  0  0  0  0  0  0  0  0  0  0
   -3.3757   -1.9146    4.5342 H   0  0  0  0  0  0  0  0  0  0  0  0
   -2.2894   -0.7632    3.7450 H   0  0  0  0  0  0  0  0  0  0  0  0
    3.2555    1.8941    4.6190 H   0  0  0  0  0  0  0  0  0  0  0  0
    2.1729    0.7619    3.7973 H   0  0  0  0  0  0  0  0  0  0  0  0
   -3.7847   -2.9623    2.3763 H   0  0  0  0  0  0  0  0  0  0  0  0
    3.7359    2.9431    2.4765 H   0  0  0  0  0  0  0  0  0  0  0  0
   -3.2421    2.0187    3.0211 H   0  0  0  0  0  0  0  0  0  0  0  0
    3.1022   -2.0314    3.0875 H   0  0  0  0  0  0  0  0  0  0  0  0
   -5.2813   -1.1119    0.8861 H   0  0  0  0  0  0  0  0  0  0  0  0
    5.2427    1.0754    1.0182 H   0  0  0  0  0  0  0  0  0  0  0  0
    1.9298   -1.8626   -4.5319 H   0  0  0  0  0  0  0  0  0  0  0  0
   -1.7621    1.8683   -4.5925 H   0  0  0  0  0  0  0  0  0  0  0  0
   -5.0798    0.1646   -1.2010 H   0  0  0  0  0  0  0  0  0  0  0  0
    5.0762   -0.1902   -1.0785 H   0  0  0  0  0  0  0  0  0  0  0  0
   -0.8495   -5.5441    2.5847 H   0  0  0  0  0  0  0  0  0  0  0  0
    0.8637    5.5746    2.6288 H   0  0  0  0  0  0  0  0  0  0  0  0
   -4.3575    1.9864   -2.1666 H   0  0  0  0  0  0  0  0  0  0  0  0
    4.3510   -1.9973   -2.0696 H   0  0  0  0  0  0  0  0  0  0  0  0
  1 29  1  0  0  0  0
  2 30  1  0  0  0  0
  3 45  1  0  0  0  0
  4 46  1  0  0  0  0
  5 25  1  0  0  0  0
  5 73  1  0  0  0  0
  6 26  1  0  0  0  0
  6 74  1  0  0  0  0
  7 39  2  0  0  0  0
  8 40  2  0  0  0  0
  9 15  1  0  0  0  0
  9 77  1  0  0  0  0
 10 16  1  0  0  0  0
 10 78  1  0  0  0  0
 11 49  1  0  0  0  0
 11 79  1  0  0  0  0
 12 50  1  0  0  0  0
 12 80  1  0  0  0  0
 13 35  1  0  0  0  0
 13 39  1  0  0  0  0
 13 67  1  0  0  0  0
 14 36  1  0  0  0  0
 14 40  1  0  0  0  0
 14 68  1  0  0  0  0
 15 31  2  0  0  0  0
 16 32  2  0  0  0  0
 17 18  1  0  0  0  0
 17 21  1  0  0  0  0
 17 25  2  0  0  0  0
 18 22  1  0  0  0  0
 18 26  2  0  0  0  0
 19 21  2  0  0  0  0
 19 23  1  0  0  0  0
 19 27  1  0  0  0  0
 20 22  2  0  0  0  0
 20 24  1  0  0  0  0
 20 28  1  0  0  0  0
 21 51  1  0  0  0  0
 22 52  1  0  0  0  0
 23 31  1  0  0  0  0
 23 53  1  0  0  0  0
 23 54  1  0  0  0  0
 24 32  1  0  0  0  0
 24 55  1  0  0  0  0
 24 56  1  0  0  0  0
 25 29  1  0  0  0  0
 26 30  1  0  0  0  0
 27 29  2  0  0  0  0
 27 57  1  0  0  0  0
 28 30  2  0  0  0  0
 28 58  1  0  0  0  0
 31 39  1  0  0  0  0
 32 40  1  0  0  0  0
 33 35  1  0  0  0  0
 33 37  1  0  0  0  0
 33 59  1  0  0  0  0
 33 60  1  0  0  0  0
 34 36  1  0  0  0  0
 34 38  1  0  0  0  0
 34 61  1  0  0  0  0
 34 62  1  0  0  0  0
 35 63  1  0  0  0  0
 35 64  1  0  0  0  0
 36 65  1  0  0  0  0
 36 66  1  0  0  0  0
 37 41  2  0  0  0  0
 37 43  1  0  0  0  0
 38 42  2  0  0  0  0
 38 44  1  0  0  0  0
 41 45  1  0  0  0  0
 41 69  1  0  0  0  0
 42 46  1  0  0  0  0
 42 70  1  0  0  0  0
 43 47  2  0  0  0  0
 43 71  1  0  0  0  0
 44 48  2  0  0  0  0
 44 72  1  0  0  0  0
 45 49  2  0  0  0  0
 46 50  2  0  0  0  0
 47 49  1  0  0  0  0
 47 75  1  0  0  0  0
 48 50  1  0  0  0  0
 48 76  1  0  0  0  0
M  END
> <PUBCHEM_COMPOUND_CID>
15282555

> <PUBCHEM_CONFORMER_RMSD>
2.2

> <PUBCHEM_CONFORMER_DIVERSEORDER>
1
163
133
147
124
159
138
2
208
25
9
56
196
210
151
185
55
132
101
112
72
136
232
57
22
202
236
122
105
211
110
186
144
214
209
16
116
118
220
93
169
235
39
205
150
90
62
131
4
204
146
230
223
200
17
184
139
109
224
195
140
98
229
79
189
171
37
199
47
81
3
50
153
192
148
75
190
5
174
193
143
162
35
176
28
120
27
178
227
142
128
194
43
157
24
222
123
182
197
217
129
97
85
198
213
54
225
104
161
76
95
183
19
107
96
126
218
7
141
152
38
177
73
219
172
165
207
228
173
114
191
115
158
77
203
145
52
188
155
53
84
88
168
119
113
201
58
89
30
130
63
206
125
48
212
106
36
59
127
181
103
156
87
111
86
135
121
100
71
221
170
13
187
233
65
175
231
80
99
160
78
149
66
180
26
33
216
166
134
82
117
83
137
234
8
94
215
92
108
91
23
226
154
67
34
6
164
68
51
167
70
40
102
12
42
64
11
179
32
18
69
44
49
60
46
41
29
45
20
74
21
15
31
10
14
61

> <PUBCHEM_MMFF94_PARTIAL_CHARGES>
66
1 -0.11
10 -0.34
11 -0.53
12 -0.53
13 -0.73
14 -0.73
15 -0.51
16 -0.51
19 -0.14
2 -0.11
20 -0.14
21 -0.15
22 -0.15
23 0.2
24 0.2
25 0.08
26 0.08
27 -0.15
28 -0.15
29 0.11
3 -0.11
30 0.11
31 0.39
32 0.39
33 0.14
34 0.14
35 0.3
36 0.3
37 -0.14
38 -0.14
39 0.63
4 -0.11
40 0.63
41 -0.15
42 -0.15
43 -0.15
44 -0.15
45 0.11
46 0.11
47 -0.15
48 -0.15
49 0.08
5 -0.53
50 0.08
51 0.15
52 0.15
57 0.15
58 0.15
6 -0.53
67 0.37
68 0.37
69 0.15
7 -0.57
70 0.15
71 0.15
72 0.15
73 0.45
74 0.45
75 0.15
76 0.15
77 0.4
78 0.4
79 0.45
8 -0.57
80 0.45
9 -0.34

> <PUBCHEM_EFFECTIVE_ROTOR_COUNT>
15

> <PUBCHEM_PHARMACOPHORE_FEATURES>
20
1 1 hydrophobe
1 10 anion
1 11 donor
1 12 donor
1 13 donor
1 14 donor
1 15 acceptor
1 16 acceptor
1 2 hydrophobe
1 3 hydrophobe
1 4 hydrophobe
1 5 donor
1 6 donor
1 7 acceptor
1 8 acceptor
1 9 anion
6 17 19 21 25 27 29 rings
6 18 20 22 26 28 30 rings
6 37 41 43 45 47 49 rings
6 38 42 44 46 48 50 rings

> <PUBCHEM_HEAVY_ATOM_COUNT>
50

> <PUBCHEM_ATOM_DEF_STEREO_COUNT>
0

> <PUBCHEM_ATOM_UDEF_STEREO_COUNT>
0

> <PUBCHEM_BOND_DEF_STEREO_COUNT>
2

> <PUBCHEM_BOND_UDEF_STEREO_COUNT>
0

> <PUBCHEM_ISOTOPIC_ATOM_COUNT>
0

> <PUBCHEM_COMPONENT_COUNT>
1

> <PUBCHEM_CACTVS_TAUTO_COUNT>
610

> <PUBCHEM_CONFORMER_ID>
00E9317B00000001

> <PUBCHEM_MMFF94_ENERGY>
116.7709

> <PUBCHEM_FEATURE_SELFOVERLAP>
101.501

> <PUBCHEM_SHAPE_FINGERPRINT>
10032420 55 16683469615839307246
12156800 1 17684410215264132074
15219648 60 17474424694586962715
15446458 163 17900012398473323470
17974551 9 18338516451248340364
20764821 26 17702123541156582769
3493558 16 17130966725370954351

> <PUBCHEM_SHAPE_MULTIPOLES>
985.87
8.32
7.19
5.95
0.66
0.15
3.43
-0.2
-6.72
0.01
0.36
-0.32
0.18
4.62

> <PUBCHEM_SHAPE_SELFOVERLAP>
2062.142

> <PUBCHEM_SHAPE_VOLUME>
571.5

> <PUBCHEM_COORDINATE_TYPE>
2
5
10

$$$$
