49830838
  -OEChem-10062121553D

 44 46  0     0  0  0  0  0  0999 V2000
    2.9541   -4.5718    0.2763 Cl  0  0  0  0  0  0  0  0  0  0  0  0
    2.8958    1.2715   -0.4272 O   0  0  0  0  0  0  0  0  0  0  0  0
   -1.0666   -1.8817    0.0868 O   0  0  0  0  0  0  0  0  0  0  0  0
    0.4780   -0.1401   -0.1750 N   0  0  0  0  0  0  0  0  0  0  0  0
   -1.7814    0.3316   -0.1560 N   0  0  0  0  0  0  0  0  0  0  0  0
   -3.7461   -1.0052    0.0719 N   0  0  0  0  0  0  0  0  0  0  0  0
   -5.2988    1.3192   -0.1573 N   0  0  0  0  0  0  0  0  0  0  0  0
   -8.4371    0.0543    0.1029 N   0  0  0  0  0  0  0  0  0  0  0  0
    3.5650    2.0391    0.5656 C   0  0  0  0  0  0  0  0  0  0  0  0
    4.6194    2.9294   -0.0745 C   0  0  0  0  0  0  0  0  0  0  0  0
    2.5930    3.0401    1.1711 C   0  0  0  0  0  0  0  0  0  0  0  0
    3.8220    4.0900   -0.6643 C   0  0  0  0  0  0  0  0  0  0  0  0
    2.5346    4.1803    0.1556 C   0  0  0  0  0  0  0  0  0  0  0  0
    2.9015   -0.0889   -0.2629 C   0  0  0  0  0  0  0  0  0  0  0  0
    1.7085   -0.8006   -0.1367 C   0  0  0  0  0  0  0  0  0  0  0  0
    4.1227   -0.7619   -0.2231 C   0  0  0  0  0  0  0  0  0  0  0  0
    4.1508   -2.1465   -0.0569 C   0  0  0  0  0  0  0  0  0  0  0  0
    1.7366   -2.1852    0.0293 C   0  0  0  0  0  0  0  0  0  0  0  0
    2.9577   -2.8582    0.0692 C   0  0  0  0  0  0  0  0  0  0  0  0
    5.4794   -2.8303   -0.0193 C   0  0  0  0  0  0  0  0  0  0  0  0
   -0.8217   -0.6893   -0.0651 C   0  0  0  0  0  0  0  0  0  0  0  0
   -3.1897    0.2110   -0.0942 C   0  0  0  0  0  0  0  0  0  0  0  0
   -3.9523    1.3527   -0.2068 C   0  0  0  0  0  0  0  0  0  0  0  0
   -5.0927   -1.0387    0.1213 C   0  0  0  0  0  0  0  0  0  0  0  0
   -5.8552    0.1030    0.0087 C   0  0  0  0  0  0  0  0  0  0  0  0
   -7.2776    0.0762    0.0606 C   0  0  0  0  0  0  0  0  0  0  0  0
    3.9985    1.4090    1.3519 H   0  0  0  0  0  0  0  0  0  0  0  0
    5.2017    2.4177   -0.8466 H   0  0  0  0  0  0  0  0  0  0  0  0
    5.3075    3.3094    0.6898 H   0  0  0  0  0  0  0  0  0  0  0  0
    2.9873    3.4207    2.1208 H   0  0  0  0  0  0  0  0  0  0  0  0
    1.5991    2.6188    1.3512 H   0  0  0  0  0  0  0  0  0  0  0  0
    4.3927    5.0236   -0.6330 H   0  0  0  0  0  0  0  0  0  0  0  0
    3.5787    3.8897   -1.7143 H   0  0  0  0  0  0  0  0  0  0  0  0
    1.6657    4.0636   -0.5023 H   0  0  0  0  0  0  0  0  0  0  0  0
    2.4384    5.1497    0.6552 H   0  0  0  0  0  0  0  0  0  0  0  0
    5.0508   -0.2062   -0.3324 H   0  0  0  0  0  0  0  0  0  0  0  0
    0.8521   -2.7966    0.1330 H   0  0  0  0  0  0  0  0  0  0  0  0
    0.5306    0.8680   -0.2986 H   0  0  0  0  0  0  0  0  0  0  0  0
    6.3073   -2.1214   -0.1308 H   0  0  0  0  0  0  0  0  0  0  0  0
    5.5627   -3.5539   -0.8370 H   0  0  0  0  0  0  0  0  0  0  0  0
    5.6214   -3.3428    0.9379 H   0  0  0  0  0  0  0  0  0  0  0  0
   -1.4282    1.2769   -0.2819 H   0  0  0  0  0  0  0  0  0  0  0  0
   -3.5176    2.3368   -0.3406 H   0  0  0  0  0  0  0  0  0  0  0  0
   -5.5296   -2.0218    0.2553 H   0  0  0  0  0  0  0  0  0  0  0  0
  1 19  1  0  0  0  0
  2  9  1  0  0  0  0
  2 14  1  0  0  0  0
  3 21  2  0  0  0  0
  4 15  1  0  0  0  0
  4 21  1  0  0  0  0
  4 38  1  0  0  0  0
  5 21  1  0  0  0  0
  5 22  1  0  0  0  0
  5 42  1  0  0  0  0
  6 22  2  0  0  0  0
  6 24  1  0  0  0  0
  7 23  2  0  0  0  0
  7 25  1  0  0  0  0
  8 26  3  0  0  0  0
  9 10  1  0  0  0  0
  9 11  1  0  0  0  0
  9 27  1  0  0  0  0
 10 12  1  0  0  0  0
 10 28  1  0  0  0  0
 10 29  1  0  0  0  0
 11 13  1  0  0  0  0
 11 30  1  0  0  0  0
 11 31  1  0  0  0  0
 12 13  1  0  0  0  0
 12 32  1  0  0  0  0
 12 33  1  0  0  0  0
 13 34  1  0  0  0  0
 13 35  1  0  0  0  0
 14 15  2  0  0  0  0
 14 16  1  0  0  0  0
 15 18  1  0  0  0  0
 16 17  2  0  0  0  0
 16 36  1  0  0  0  0
 17 19  1  0  0  0  0
 17 20  1  0  0  0  0
 18 19  2  0  0  0  0
 18 37  1  0  0  0  0
 20 39  1  0  0  0  0
 20 40  1  0  0  0  0
 20 41  1  0  0  0  0
 22 23  1  0  0  0  0
 23 43  1  0  0  0  0
 24 25  2  0  0  0  0
 24 44  1  0  0  0  0
 25 26  1  0  0  0  0
M  END
> <PUBCHEM_COMPOUND_CID>
49830838

> <PUBCHEM_CONFORMER_RMSD>
0.8

> <PUBCHEM_CONFORMER_DIVERSEORDER>
1
31
52
32
24
13
41
25
37
58
34
43
20
36
14
30
49
38
55
19
63
60
50
27
53
57
17
22
48
51
35
9
23
6
5
33
42
46
64
39
45
10
59
11
15
18
8
26
21
28
44
47
3
54
12
40
16
29
61
56
4
7
62
2

> <PUBCHEM_MMFF94_PARTIAL_CHARGES>
28
1 -0.18
14 0.08
15 0.12
16 -0.15
17 -0.14
18 -0.15
19 0.18
2 -0.36
20 0.14
21 0.69
22 0.43
23 0.16
24 0.16
25 0.38
26 0.48
3 -0.57
36 0.15
37 0.15
38 0.37
4 -0.55
42 0.37
43 0.15
44 0.15
5 -0.55
6 -0.62
7 -0.62
8 -0.56
9 0.28

> <PUBCHEM_EFFECTIVE_ROTOR_COUNT>
7

> <PUBCHEM_PHARMACOPHORE_FEATURES>
9
1 2 acceptor
1 3 acceptor
1 4 donor
1 5 donor
1 7 acceptor
1 8 acceptor
5 9 10 11 12 13 rings
6 14 15 16 17 18 19 rings
6 6 7 22 23 24 25 rings

> <PUBCHEM_HEAVY_ATOM_COUNT>
26

> <PUBCHEM_ATOM_DEF_STEREO_COUNT>
0

> <PUBCHEM_ATOM_UDEF_STEREO_COUNT>
0

> <PUBCHEM_BOND_DEF_STEREO_COUNT>
0

> <PUBCHEM_BOND_UDEF_STEREO_COUNT>
0

> <PUBCHEM_ISOTOPIC_ATOM_COUNT>
0

> <PUBCHEM_COMPONENT_COUNT>
1

> <PUBCHEM_CACTVS_TAUTO_COUNT>
5

> <PUBCHEM_CONFORMER_ID>
02F85BB600000001

> <PUBCHEM_MMFF94_ENERGY>
76.081

> <PUBCHEM_FEATURE_SELFOVERLAP>
45.722

> <PUBCHEM_SHAPE_FINGERPRINT>
10050765 1 18338799047344312783
10162869 55 18270665559298378159
10165383 225 18188216511226834628
10411042 1 18122626046820102174
10483366 6 18337405911442832684
10595046 47 18342455972242702343
10835480 77 18336262431891494349
12107183 9 18054517898396145985
12166972 35 18201718397107184290
12616971 3 17917422125679381399
12730499 353 18338243776759891464
12769317 202 18341606083523923824
13533116 47 18413108364228723889
13590594 115 18193848033279057216
13785724 45 17911528596909577502
138480 1 18338797810999626412
13878862 14 18336807754698071717
13955234 65 18410291406526778210
14170010 4 18412542103108569234
14461889 52 18115873074050919467
14790565 3 17761215814054147244
14849402 71 18408890637714349924
15400415 2 17762617696050101577
15475509 35 16660908999158734426
15890870 6 18194123143035821668
15927050 60 18196653124107982478
16992752 21 17834119642074727886
17844677 252 18340493270719710841
17868525 174 18267016163867379248
18681886 176 18342170017156952258
18785283 64 18335414690961656308
19301679 30 17905318530273807522
19427546 62 18337110189009697570
20157964 124 18411138056465987049
21033648 29 17313374618150599213
21049683 271 18261401005824573252
21133410 127 17896313786817318221
21315763 129 18340486656443642861
21315764 268 18335698313480291013
21344244 78 18199453399381127730
23559900 14 18409727361235318466
23845131 108 18192148411461551122
239999 70 18272939306078772718
24771293 8 18129077058123949314
249057 25 17846785075200769425
255183 451 18057895641029267766
3411729 13 18335416928724215176
34797466 226 18059584594194963245
397830 11 18042414689556772643
4073 2 18261396719136436475
44555599 121 18201446827401737873
5104073 3 18334862731803425867
5912855 24 18127965511502581143
67856867 119 18413385440873989387
9849439 229 17981596375865667120
9962374 69 18410845560756883767
9981440 41 18049718817792241312

> <PUBCHEM_SHAPE_MULTIPOLES>
500.29
16.75
5.33
0.7
40.49
1.69
-0.06
0.39
-0.02
-12.81
-0.35
-0.33
0.26
0.08

> <PUBCHEM_SHAPE_SELFOVERLAP>
1060.026

> <PUBCHEM_SHAPE_VOLUME>
279.1

> <PUBCHEM_COORDINATE_TYPE>
2
5
10

$$$$
