49831037
  -OEChem-10052120443D

 40 43  0     0  0  0  0  0  0999 V2000
   -1.7505   -5.0060    0.2168 Cl  0  0  0  0  0  0  0  0  0  0  0  0
    3.7343   -1.2078   -0.1189 O   0  0  0  0  0  0  0  0  0  0  0  0
   -5.4900    1.6960    0.1935 O   0  0  0  0  0  0  0  0  0  0  0  0
   -0.1837   -0.0512    0.1150 N   0  0  0  0  0  0  0  0  0  0  0  0
    0.5534    2.2684    0.1595 N   0  0  0  0  0  0  0  0  0  0  0  0
    2.8872    2.8514    0.0901 N   0  0  0  0  0  0  0  0  0  0  0  0
    4.5372    1.2058   -0.0269 N   0  0  0  0  0  0  0  0  0  0  0  0
    1.2389    4.5122    0.2014 N   0  0  0  0  0  0  0  0  0  0  0  0
    0.1405   -1.4535    0.0849 C   0  0  0  0  0  0  0  0  0  0  0  0
    0.8597    0.9447    0.1148 C   0  0  0  0  0  0  0  0  0  0  0  0
    1.4797   -1.8761    0.0035 C   0  0  0  0  0  0  0  0  0  0  0  0
   -1.5474    0.3989    0.1203 C   0  0  0  0  0  0  0  0  0  0  0  0
    2.1918    0.5486    0.0451 C   0  0  0  0  0  0  0  0  0  0  0  0
    2.5605   -0.8719   -0.0319 C   0  0  0  0  0  0  0  0  0  0  0  0
   -2.2215    0.6487   -1.0751 C   0  0  0  0  0  0  0  0  0  0  0  0
   -0.8469   -2.4560    0.1619 C   0  0  0  0  0  0  0  0  0  0  0  0
    1.8180   -3.2366   -0.0285 C   0  0  0  0  0  0  0  0  0  0  0  0
   -2.1979    0.5853    1.3401 C   0  0  0  0  0  0  0  0  0  0  0  0
    3.1652    1.5366    0.0368 C   0  0  0  0  0  0  0  0  0  0  0  0
   -0.5117   -3.8131    0.1310 C   0  0  0  0  0  0  0  0  0  0  0  0
   -3.5462    1.0848   -1.0506 C   0  0  0  0  0  0  0  0  0  0  0  0
    0.8187   -4.2026    0.0315 C   0  0  0  0  0  0  0  0  0  0  0  0
   -1.5492    0.4573   -2.3956 C   0  0  0  0  0  0  0  0  0  0  0  0
   -3.5225    1.0218    1.3644 C   0  0  0  0  0  0  0  0  0  0  0  0
   -4.1968    1.2714    0.1691 C   0  0  0  0  0  0  0  0  0  0  0  0
    1.5791    3.1431    0.1480 C   0  0  0  0  0  0  0  0  0  0  0  0
   -1.8986   -2.1897    0.2396 H   0  0  0  0  0  0  0  0  0  0  0  0
    2.8534   -3.5600   -0.0947 H   0  0  0  0  0  0  0  0  0  0  0  0
   -1.6832    0.3940    2.2782 H   0  0  0  0  0  0  0  0  0  0  0  0
   -4.0757    1.2806   -1.9800 H   0  0  0  0  0  0  0  0  0  0  0  0
    1.0930   -5.2540    0.0068 H   0  0  0  0  0  0  0  0  0  0  0  0
   -0.6863    1.1239   -2.4911 H   0  0  0  0  0  0  0  0  0  0  0  0
   -1.2230   -0.5803   -2.5185 H   0  0  0  0  0  0  0  0  0  0  0  0
   -2.2229    0.6820   -3.2300 H   0  0  0  0  0  0  0  0  0  0  0  0
   -4.0240    1.1650    2.3177 H   0  0  0  0  0  0  0  0  0  0  0  0
    4.8475    0.3450    0.4057 H   0  0  0  0  0  0  0  0  0  0  0  0
    5.1888    1.9813   -0.0380 H   0  0  0  0  0  0  0  0  0  0  0  0
    0.2656    4.7809    0.2454 H   0  0  0  0  0  0  0  0  0  0  0  0
    1.9724    5.2074    0.1948 H   0  0  0  0  0  0  0  0  0  0  0  0
   -5.7991    1.8186   -0.7205 H   0  0  0  0  0  0  0  0  0  0  0  0
  1 20  1  0  0  0  0
  2 14  2  0  0  0  0
  3 25  1  0  0  0  0
  3 40  1  0  0  0  0
  4  9  1  0  0  0  0
  4 10  1  0  0  0  0
  4 12  1  0  0  0  0
  5 10  2  0  0  0  0
  5 26  1  0  0  0  0
  6 19  1  0  0  0  0
  6 26  2  0  0  0  0
  7 19  1  0  0  0  0
  7 36  1  0  0  0  0
  7 37  1  0  0  0  0
  8 26  1  0  0  0  0
  8 38  1  0  0  0  0
  8 39  1  0  0  0  0
  9 11  2  0  0  0  0
  9 16  1  0  0  0  0
 10 13  1  0  0  0  0
 11 14  1  0  0  0  0
 11 17  1  0  0  0  0
 12 15  2  0  0  0  0
 12 18  1  0  0  0  0
 13 14  1  0  0  0  0
 13 19  2  0  0  0  0
 15 21  1  0  0  0  0
 15 23  1  0  0  0  0
 16 20  2  0  0  0  0
 16 27  1  0  0  0  0
 17 22  2  0  0  0  0
 17 28  1  0  0  0  0
 18 24  2  0  0  0  0
 18 29  1  0  0  0  0
 20 22  1  0  0  0  0
 21 25  2  0  0  0  0
 21 30  1  0  0  0  0
 22 31  1  0  0  0  0
 23 32  1  0  0  0  0
 23 33  1  0  0  0  0
 23 34  1  0  0  0  0
 24 25  1  0  0  0  0
 24 35  1  0  0  0  0
M  END
> <PUBCHEM_COMPOUND_CID>
49831037

> <PUBCHEM_CONFORMER_RMSD>
0.6

> <PUBCHEM_CONFORMER_DIVERSEORDER>
2
1

> <PUBCHEM_MMFF94_PARTIAL_CHARGES>
37
1 -0.18
10 0.41
11 0.09
12 0.1
13 0.09
14 0.4
15 -0.14
16 -0.15
17 -0.15
18 -0.15
19 0.41
2 -0.57
20 0.18
21 -0.15
22 -0.15
23 0.14
24 -0.15
25 0.08
26 0.72
27 0.15
28 0.15
29 0.15
3 -0.53
30 0.15
31 0.15
35 0.15
36 0.4
37 0.4
38 0.4
39 0.4
4 -0.3
40 0.45
5 -0.62
6 -0.62
7 -0.9
8 -0.9
9 0.1

> <PUBCHEM_EFFECTIVE_ROTOR_COUNT>
1

> <PUBCHEM_PHARMACOPHORE_FEATURES>
10
1 2 acceptor
1 3 donor
1 7 cation
1 7 donor
1 8 donor
4 5 6 8 26 cation
6 12 15 18 21 24 25 rings
6 4 9 10 11 13 14 rings
6 5 6 10 13 19 26 rings
6 9 11 16 17 20 22 rings

> <PUBCHEM_HEAVY_ATOM_COUNT>
26

> <PUBCHEM_ATOM_DEF_STEREO_COUNT>
0

> <PUBCHEM_ATOM_UDEF_STEREO_COUNT>
0

> <PUBCHEM_BOND_DEF_STEREO_COUNT>
0

> <PUBCHEM_BOND_UDEF_STEREO_COUNT>
0

> <PUBCHEM_ISOTOPIC_ATOM_COUNT>
0

> <PUBCHEM_COMPONENT_COUNT>
1

> <PUBCHEM_CACTVS_TAUTO_COUNT>
72

> <PUBCHEM_CONFORMER_ID>
02F85C7D00000002

> <PUBCHEM_MMFF94_ENERGY>
104.5114

> <PUBCHEM_FEATURE_SELFOVERLAP>
50.794

> <PUBCHEM_SHAPE_FINGERPRINT>
10064457 181 18337957903647395165
10165383 225 18261407649400950068
10411042 1 17546166303290693819
10693767 8 17986952934122143718
10967382 1 18338799996810906562
1100329 8 18410853244505818626
11582403 64 16448637309964497837
12236239 1 17631727158837917209
12553582 1 17691129232048208003
12788726 201 17398379214702847736
13140716 1 18410006646459313698
13583140 156 16660903540097135448
138480 1 17906172854153016243
13911987 19 18262807242114914990
14790565 3 18267319659584898296
16728300 4 17100562892807213570
16945 1 18266739078505383610
17138139 8 17699251612769661207
1813 80 17482837766224776471
19591789 44 18337677506712717899
19930381 70 18265332816023362065
20510252 161 17403738238444949392
20739085 24 18192448389162887984
21041028 32 17761770659229908903
2255824 54 18197215854253082895
22907989 373 17614841146668006124
2334 1 18338797948306880018
23558518 356 18198892798595683191
23559900 14 18121217576655987611
238 59 17827881153945203727
23845131 108 18408318913301070003
2748010 2 18339087094116306294
283562 15 17908710531986289794
350125 39 17977672227239167384
3886686 26 17907822380099717304
404807 14 14614652834305330500
474 4 18341892982933286761
5309563 4 17762339115838383875
6443956 14 17976825285436925573
81228 2 17393882186116840298
8272917 22 18268997479852529901
9777508 108 18195807603201158075
9981440 41 16480465083344266232

> <PUBCHEM_SHAPE_MULTIPOLES>
500.29
6.64
5.95
1.09
3.86
5.52
-0.44
-4.98
0.36
-1.85
0.63
1.07
-0.3
0.16

> <PUBCHEM_SHAPE_SELFOVERLAP>
1112.936

> <PUBCHEM_SHAPE_VOLUME>
267.1

> <PUBCHEM_COORDINATE_TYPE>
2
5
10

$$$$
