25125014
  -OEChem-10052115143D

 55 57  0     1  0  0  0  0  0999 V2000
    3.9972   -2.6595   -1.6342 O   0  0  0  0  0  0  0  0  0  0  0  0
    3.6356   -3.0535    2.5080 O   0  0  0  0  0  0  0  0  0  0  0  0
    5.8605   -0.6307   -2.1562 O   0  0  0  0  0  0  0  0  0  0  0  0
   -0.5547    1.3672    0.1160 N   0  0  0  0  0  0  0  0  0  0  0  0
    1.9336   -1.8339    0.3771 N   0  0  0  0  0  0  0  0  0  0  0  0
    1.6662    0.4519    0.2842 N   0  0  0  0  0  0  0  0  0  0  0  0
   -1.1760    2.5782    0.0374 N   0  0  0  0  0  0  0  0  0  0  0  0
   -2.5098    0.0342    0.0388 N   0  0  0  0  0  0  0  0  0  0  0  0
    3.3791   -1.7530    0.4983 C   0  0  2  0  0  0  0  0  0  0  0  0
    1.0764    2.8733    0.1684 C   0  0  0  0  0  0  0  0  0  0  0  0
    4.0048   -1.4476   -0.8725 C   0  0  1  0  0  0  0  0  0  0  0  0
    2.3838    3.5493    0.2281 C   0  0  0  0  0  0  0  0  0  0  0  0
    0.8286    1.5197    0.1968 C   0  0  0  0  0  0  0  0  0  0  0  0
    1.1335   -0.7475    0.2911 C   0  0  0  0  0  0  0  0  0  0  0  0
   -1.1482    0.0974    0.1215 C   0  0  0  0  0  0  0  0  0  0  0  0
    3.9096   -3.0493    1.1106 C   0  0  0  0  0  0  0  0  0  0  0  0
   -0.3500   -0.9783    0.2070 C   0  0  0  0  0  0  0  0  0  0  0  0
   -0.1864    3.4684    0.0702 C   0  0  0  0  0  0  0  0  0  0  0  0
    5.4320   -0.9036   -0.8246 C   0  0  0  0  0  0  0  0  0  0  0  0
    3.3033    3.1997   -0.9666 C   0  0  0  0  0  0  0  0  0  0  0  0
    3.1461    3.2819    1.5481 C   0  0  0  0  0  0  0  0  0  0  0  0
   -3.2455   -1.2028    0.0340 C   0  0  0  0  0  0  0  0  0  0  0  0
   -4.7193   -0.9391   -0.1032 C   0  0  0  0  0  0  0  0  0  0  0  0
   -5.5047   -0.7598    1.0357 C   0  0  0  0  0  0  0  0  0  0  0  0
   -5.3014   -0.8727   -1.3691 C   0  0  0  0  0  0  0  0  0  0  0  0
   -6.8719   -0.5145    0.9085 C   0  0  0  0  0  0  0  0  0  0  0  0
   -6.6686   -0.6273   -1.4962 C   0  0  0  0  0  0  0  0  0  0  0  0
   -7.4539   -0.4481   -0.3572 C   0  0  0  0  0  0  0  0  0  0  0  0
    3.6183   -0.9332    1.1889 H   0  0  0  0  0  0  0  0  0  0  0  0
    3.3881   -0.7353   -1.4333 H   0  0  0  0  0  0  0  0  0  0  0  0
    2.2101    4.6334    0.1819 H   0  0  0  0  0  0  0  0  0  0  0  0
    1.5265   -2.7641    0.3251 H   0  0  0  0  0  0  0  0  0  0  0  0
    3.4491   -3.9382    0.6657 H   0  0  0  0  0  0  0  0  0  0  0  0
    4.9953   -3.1251    0.9989 H   0  0  0  0  0  0  0  0  0  0  0  0
   -0.7047   -2.0016    0.2199 H   0  0  0  0  0  0  0  0  0  0  0  0
   -0.4350    4.5190    0.0204 H   0  0  0  0  0  0  0  0  0  0  0  0
    5.4790    0.0228   -0.2442 H   0  0  0  0  0  0  0  0  0  0  0  0
    6.1249   -1.6371   -0.4020 H   0  0  0  0  0  0  0  0  0  0  0  0
    3.5896    2.1426   -0.9604 H   0  0  0  0  0  0  0  0  0  0  0  0
    4.2203    3.7977   -0.9340 H   0  0  0  0  0  0  0  0  0  0  0  0
    2.7981    3.4053   -1.9167 H   0  0  0  0  0  0  0  0  0  0  0  0
    3.4276    2.2278    1.6455 H   0  0  0  0  0  0  0  0  0  0  0  0
    2.5271    3.5457    2.4127 H   0  0  0  0  0  0  0  0  0  0  0  0
    4.0619    3.8810    1.5914 H   0  0  0  0  0  0  0  0  0  0  0  0
   -3.0119    0.9152   -0.0167 H   0  0  0  0  0  0  0  0  0  0  0  0
   -3.0653   -1.7645    0.9598 H   0  0  0  0  0  0  0  0  0  0  0  0
   -2.9205   -1.8462   -0.7940 H   0  0  0  0  0  0  0  0  0  0  0  0
    4.3932   -2.4618   -2.5002 H   0  0  0  0  0  0  0  0  0  0  0  0
    3.9896   -3.8857    2.8654 H   0  0  0  0  0  0  0  0  0  0  0  0
    6.7662   -0.2818   -2.0972 H   0  0  0  0  0  0  0  0  0  0  0  0
   -5.0627   -0.8070    2.0275 H   0  0  0  0  0  0  0  0  0  0  0  0
   -4.7000   -1.0084   -2.2641 H   0  0  0  0  0  0  0  0  0  0  0  0
   -7.4833   -0.3744    1.7952 H   0  0  0  0  0  0  0  0  0  0  0  0
   -7.1218   -0.5750   -2.4818 H   0  0  0  0  0  0  0  0  0  0  0  0
   -8.5183   -0.2568   -0.4562 H   0  0  0  0  0  0  0  0  0  0  0  0
  1 11  1  0  0  0  0
  1 48  1  0  0  0  0
  2 16  1  0  0  0  0
  2 49  1  0  0  0  0
  3 19  1  0  0  0  0
  3 50  1  0  0  0  0
  4  7  1  0  0  0  0
  4 13  1  0  0  0  0
  4 15  1  0  0  0  0
  5  9  1  0  0  0  0
  5 14  1  0  0  0  0
  5 32  1  0  0  0  0
  6 13  1  0  0  0  0
  6 14  2  0  0  0  0
  7 18  2  0  0  0  0
  8 15  1  0  0  0  0
  8 22  1  0  0  0  0
  8 45  1  0  0  0  0
  9 11  1  0  0  0  0
  9 16  1  0  0  0  0
  9 29  1  0  0  0  0
 10 12  1  0  0  0  0
 10 13  2  0  0  0  0
 10 18  1  0  0  0  0
 11 19  1  0  0  0  0
 11 30  1  0  0  0  0
 12 20  1  0  0  0  0
 12 21  1  0  0  0  0
 12 31  1  0  0  0  0
 14 17  1  0  0  0  0
 15 17  2  0  0  0  0
 16 33  1  0  0  0  0
 16 34  1  0  0  0  0
 17 35  1  0  0  0  0
 18 36  1  0  0  0  0
 19 37  1  0  0  0  0
 19 38  1  0  0  0  0
 20 39  1  0  0  0  0
 20 40  1  0  0  0  0
 20 41  1  0  0  0  0
 21 42  1  0  0  0  0
 21 43  1  0  0  0  0
 21 44  1  0  0  0  0
 22 23  1  0  0  0  0
 22 46  1  0  0  0  0
 22 47  1  0  0  0  0
 23 24  2  0  0  0  0
 23 25  1  0  0  0  0
 24 26  1  0  0  0  0
 24 51  1  0  0  0  0
 25 27  2  0  0  0  0
 25 52  1  0  0  0  0
 26 28  2  0  0  0  0
 26 53  1  0  0  0  0
 27 28  1  0  0  0  0
 27 54  1  0  0  0  0
 28 55  1  0  0  0  0
M  END
> <PUBCHEM_COMPOUND_CID>
25125014

> <PUBCHEM_CONFORMER_RMSD>
1

> <PUBCHEM_CONFORMER_DIVERSEORDER>
1
63
40
67
43
34
5
24
31
44
62
55
60
45
23
52
57
21
66
35
12
32
64
58
33
8
54
41
61
59
14
51
49
50
13
30
46
20
39
11
65
18
37
36
48
38
10
26
25
19
27
53
15
16
3
6
29
7
47
56
28
2
9
4
17
42
22

> <PUBCHEM_MMFF94_PARTIAL_CHARGES>
38
1 -0.68
10 -0.18
11 0.28
12 0.18
13 -0.03
14 0.49
15 0.07
16 0.28
17 -0.14
18 0.14
19 0.28
2 -0.68
22 0.51
23 -0.14
24 -0.15
25 -0.15
26 -0.15
27 -0.15
28 -0.15
3 -0.68
32 0.4
35 0.15
36 0.15
4 0.6
45 0.4
48 0.4
49 0.4
5 -0.82
50 0.4
51 0.15
52 0.15
53 0.15
54 0.15
55 0.15
6 -0.58
7 -0.71
8 -0.87
9 0.37

> <PUBCHEM_EFFECTIVE_ROTOR_COUNT>
9

> <PUBCHEM_PHARMACOPHORE_FEATURES>
15
1 1 acceptor
1 1 donor
1 2 acceptor
1 2 donor
1 3 acceptor
1 3 donor
1 5 donor
1 7 acceptor
1 8 cation
1 8 donor
3 12 20 21 hydrophobe
3 5 6 14 cation
5 4 7 10 13 18 rings
6 23 24 25 26 27 28 rings
6 4 6 13 14 15 17 rings

> <PUBCHEM_HEAVY_ATOM_COUNT>
28

> <PUBCHEM_ATOM_DEF_STEREO_COUNT>
2

> <PUBCHEM_ATOM_UDEF_STEREO_COUNT>
0

> <PUBCHEM_BOND_DEF_STEREO_COUNT>
0

> <PUBCHEM_BOND_UDEF_STEREO_COUNT>
0

> <PUBCHEM_ISOTOPIC_ATOM_COUNT>
0

> <PUBCHEM_COMPONENT_COUNT>
1

> <PUBCHEM_CACTVS_TAUTO_COUNT>
11

> <PUBCHEM_CONFORMER_ID>
017F609600000001

> <PUBCHEM_MMFF94_ENERGY>
63.0145

> <PUBCHEM_FEATURE_SELFOVERLAP>
76.257

> <PUBCHEM_SHAPE_FINGERPRINT>
10411042 1 18265890268218554850
10675989 125 18195532716794963284
10693767 8 18201720695115245430
12107183 9 18270407071440446441
12553582 1 18340761563814471462
12788726 201 18263648372515240122
13533116 47 18130791204281608217
13540713 5 17827365384766853386
13782708 43 17822286912668584739
14739800 52 17059485387306199233
14931854 50 18263386784070242220
15042514 8 17905602199059882226
15081414 286 18263364845150959685
15183329 4 18411136910200550527
15420108 30 17698704120160515522
15927050 60 18051695743841377678
16994733 274 15430042079681182959
17492 89 17976538308977309402
17980427 26 17127870676589563625
1813 80 18272650104202519679
18222031 100 18272647926823002979
19319366 153 17894909616269270442
20612939 158 18411982503245410965
20642791 35 18339927116567627962
21033648 29 17458611342947736623
21049683 271 18187940507468486685
2132832 1 18130792239848573673
21641784 216 17969800595625152964
21781055 127 16486155958899933923
22182313 1 18042662014705576981
23352939 185 18272663333039154944
23559900 14 18339639040368777371
24771293 8 18201991162364822914
24771750 20 17901687164533879188
25147074 1 18130523976170341545
3004659 81 18131068242942015799
3421961 26 18409725175418458457
3534868 343 18191599557965549854
394071 54 18343016726692557914
4073 2 18044094786089324123
5385378 56 18338232794813852617
59755656 215 18334852874310434708
8863177 126 18041853930000398747
9841814 1 18335976515095953210

> <PUBCHEM_SHAPE_MULTIPOLES>
533.71
15.94
4.38
1.46
27.95
3.25
0.01
-9.3
3.93
-8.45
-1.07
-1.25
-0.86
-0.15

> <PUBCHEM_SHAPE_SELFOVERLAP>
1123.904

> <PUBCHEM_SHAPE_VOLUME>
301.1

> <PUBCHEM_COORDINATE_TYPE>
2
5
10

$$$$
