13811517
  -OEChem-10052120433D

 31 32  0     0  0  0  0  0  0999 V2000
   -4.0005    0.4869    0.0998 O   0  0  0  0  0  0  0  0  0  0  0  0
    0.2807   -2.6126   -1.1958 O   0  0  0  0  0  0  0  0  0  0  0  0
   -2.0044    1.6355   -0.0212 N   0  0  0  0  0  0  0  0  0  0  0  0
   -0.6480    1.6396   -0.0419 N   0  0  0  0  0  0  0  0  0  0  0  0
   -2.8728   -1.9232    0.0204 N   0  0  0  0  0  0  0  0  0  0  0  0
   -0.7010   -0.8309   -0.0251 C   0  0  0  0  0  0  0  0  0  0  0  0
   -0.0417    0.5002   -0.0267 C   0  0  0  0  0  0  0  0  0  0  0  0
   -2.0441   -0.8341    0.0157 C   0  0  0  0  0  0  0  0  0  0  0  0
    1.4332    0.5312   -0.0060 C   0  0  0  0  0  0  0  0  0  0  0  0
   -2.7685    0.4823    0.0397 C   0  0  0  0  0  0  0  0  0  0  0  0
    0.0291   -2.1080   -0.1036 C   0  0  0  0  0  0  0  0  0  0  0  0
    2.1404    0.5357   -1.2040 C   0  0  0  0  0  0  0  0  0  0  0  0
    2.1056    0.5555    1.2116 C   0  0  0  0  0  0  0  0  0  0  0  0
   -2.6121    2.9567   -0.0305 C   0  0  0  0  0  0  0  0  0  0  0  0
    0.4548   -2.7531    1.1868 C   0  0  0  0  0  0  0  0  0  0  0  0
    3.5349    0.5647   -1.1842 C   0  0  0  0  0  0  0  0  0  0  0  0
    3.5000    0.5845    1.2314 C   0  0  0  0  0  0  0  0  0  0  0  0
    4.2146    0.5891    0.0335 C   0  0  0  0  0  0  0  0  0  0  0  0
    1.6199    0.5165   -2.1578 H   0  0  0  0  0  0  0  0  0  0  0  0
    1.5579    0.5516    2.1502 H   0  0  0  0  0  0  0  0  0  0  0  0
   -2.3028    3.4915    0.8724 H   0  0  0  0  0  0  0  0  0  0  0  0
   -3.7030    2.8957   -0.0534 H   0  0  0  0  0  0  0  0  0  0  0  0
   -2.2655    3.4991   -0.9153 H   0  0  0  0  0  0  0  0  0  0  0  0
   -3.8767   -1.7938    0.0442 H   0  0  0  0  0  0  0  0  0  0  0  0
   -2.4853   -2.8578   -0.0014 H   0  0  0  0  0  0  0  0  0  0  0  0
    0.1505   -2.1505    2.0472 H   0  0  0  0  0  0  0  0  0  0  0  0
    1.5434   -2.8515    1.1984 H   0  0  0  0  0  0  0  0  0  0  0  0
   -0.0135   -3.7375    1.2682 H   0  0  0  0  0  0  0  0  0  0  0  0
    4.0912    0.5680   -2.1169 H   0  0  0  0  0  0  0  0  0  0  0  0
    4.0294    0.6031    2.1796 H   0  0  0  0  0  0  0  0  0  0  0  0
    5.3003    0.6115    0.0490 H   0  0  0  0  0  0  0  0  0  0  0  0
  1 10  2  0  0  0  0
  2 11  2  0  0  0  0
  3  4  1  0  0  0  0
  3 10  1  0  0  0  0
  3 14  1  0  0  0  0
  4  7  2  0  0  0  0
  5  8  1  0  0  0  0
  5 24  1  0  0  0  0
  5 25  1  0  0  0  0
  6  7  1  0  0  0  0
  6  8  2  0  0  0  0
  6 11  1  0  0  0  0
  7  9  1  0  0  0  0
  8 10  1  0  0  0  0
  9 12  2  0  0  0  0
  9 13  1  0  0  0  0
 11 15  1  0  0  0  0
 12 16  1  0  0  0  0
 12 19  1  0  0  0  0
 13 17  2  0  0  0  0
 13 20  1  0  0  0  0
 14 21  1  0  0  0  0
 14 22  1  0  0  0  0
 14 23  1  0  0  0  0
 15 26  1  0  0  0  0
 15 27  1  0  0  0  0
 15 28  1  0  0  0  0
 16 18  2  0  0  0  0
 16 29  1  0  0  0  0
 17 18  1  0  0  0  0
 17 30  1  0  0  0  0
 18 31  1  0  0  0  0
M  END
> <PUBCHEM_COMPOUND_CID>
13811517

> <PUBCHEM_CONFORMER_RMSD>
0.6

> <PUBCHEM_CONFORMER_DIVERSEORDER>
1
2

> <PUBCHEM_MMFF94_PARTIAL_CHARGES>
25
1 -0.57
10 0.62
11 0.49
12 -0.15
13 -0.15
14 0.3
15 0.06
16 -0.15
17 -0.15
18 -0.15
19 0.15
2 -0.57
20 0.15
24 0.4
25 0.4
29 0.15
3 -0.3
30 0.15
31 0.15
4 -0.51
5 -0.9
6 0.03
7 0.35
8 0.11
9 0.09

> <PUBCHEM_EFFECTIVE_ROTOR_COUNT>
2

> <PUBCHEM_PHARMACOPHORE_FEATURES>
7
1 1 acceptor
1 2 acceptor
1 4 acceptor
1 5 cation
1 5 donor
6 3 4 6 7 8 10 rings
6 9 12 13 16 17 18 rings

> <PUBCHEM_HEAVY_ATOM_COUNT>
18

> <PUBCHEM_ATOM_DEF_STEREO_COUNT>
0

> <PUBCHEM_ATOM_UDEF_STEREO_COUNT>
0

> <PUBCHEM_BOND_DEF_STEREO_COUNT>
0

> <PUBCHEM_BOND_UDEF_STEREO_COUNT>
0

> <PUBCHEM_ISOTOPIC_ATOM_COUNT>
0

> <PUBCHEM_COMPONENT_COUNT>
1

> <PUBCHEM_CACTVS_TAUTO_COUNT>
7

> <PUBCHEM_CONFORMER_ID>
00D2BF3D00000001

> <PUBCHEM_MMFF94_ENERGY>
61.6902

> <PUBCHEM_FEATURE_SELFOVERLAP>
35.522

> <PUBCHEM_SHAPE_FINGERPRINT>
11132069 177 18411983580807526521
11578080 2 17173167214374899508
11725454 13 16769810136779538656
12173636 292 18409727391527124876
12236239 1 17676486164075604180
12592029 89 18260835851703830370
13140716 1 18266182919153798481
13538477 17 17823979137728895562
13581323 91 18337385058563609626
14181834 199 17833531419456375335
14614273 12 18334571296581387949
15042514 8 18265617761054664139
15309172 13 18336273404646693105
15669948 3 18265335204125334052
15775835 57 18412261735674251882
16752209 62 18335976566535041126
16945 1 18409166649091467091
18186145 218 17918000455662977320
19049666 15 17988934323163448372
19422 9 17822007644671268674
20028762 73 17695360556836074095
20510252 161 18342460390941487712
20645476 183 17677339449269962870
20691752 17 17387708097804293709
20905425 154 18341334383671083511
21501502 16 18194679259711072793
21524375 3 18411419492508475626
22344851 341 18193281797142826274
2334 1 18194120712220721965
23366157 5 17825675438925206795
23402539 116 18341604979516258356
23419403 2 16895462213769041266
23526113 38 17631745889195329652
23559900 14 18272094916146344548
23598291 2 17822016445238840412
2748010 2 18339934705410882367
305870 269 18263922142214509296
350125 39 17977955574943133185
43471831 8 18334570231060447762
465052 167 17753347644785497563
69090 78 17774999132684306054
7364860 26 17983293725011911694
77492 1 17676204693314700564
81228 2 17909539898038622819
81539 233 18188205395128434495
90525 40 18260267443015806436
9709674 26 18341341093042957246

> <PUBCHEM_SHAPE_MULTIPOLES>
343.75
6.2
2.77
1.09
1.75
0.99
-0.01
-2.79
-0.12
-2.05
-0.1
1.01
0.2
-0.11

> <PUBCHEM_SHAPE_SELFOVERLAP>
738.697

> <PUBCHEM_SHAPE_VOLUME>
189.7

> <PUBCHEM_COORDINATE_TYPE>
2
5
10

$$$$
