49830414
  -OEChem-10062121543D

 71 76  0     0  0  0  0  0  0999 V2000
    6.1521    0.0561   -1.7702 S   0  0  0  0  0  0  0  0  0  0  0  0
   -4.0252   -3.1938    0.5603 F   0  0  0  0  0  0  0  0  0  0  0  0
   -3.4938    0.8899   -1.8072 F   0  0  0  0  0  0  0  0  0  0  0  0
   -2.8540    2.6086    2.3652 O   0  0  0  0  0  0  0  0  0  0  0  0
   -1.5565   -0.3084   -0.5805 O   0  0  0  0  0  0  0  0  0  0  0  0
    4.3301   -0.1069    0.0272 N   0  0  0  0  0  0  0  0  0  0  0  0
    3.9391   -1.6650   -1.5251 N   0  0  0  0  0  0  0  0  0  0  0  0
    1.2595    2.7475   -2.4722 N   0  0  0  0  0  0  0  0  0  0  0  0
    1.5214    0.5054    1.4994 N   0  0  0  0  0  0  0  0  0  0  0  0
   -0.1693    1.7783    2.5031 N   0  0  0  0  0  0  0  0  0  0  0  0
   -1.7914   -2.6479   -0.5620 N   0  0  0  0  0  0  0  0  0  0  0  0
    1.0493    0.3030    3.8539 N   0  0  0  0  0  0  0  0  0  0  0  0
    3.2058   -0.7489    0.4475 C   0  0  0  0  0  0  0  0  0  0  0  0
    2.9829   -1.7078   -0.5273 C   0  0  0  0  0  0  0  0  0  0  0  0
    4.7161   -0.6908   -1.1406 C   0  0  0  0  0  0  0  0  0  0  0  0
    1.8997   -2.6459   -0.5289 C   0  0  0  0  0  0  0  0  0  0  0  0
    2.4909   -0.4203    1.6521 C   0  0  0  0  0  0  0  0  0  0  0  0
    5.1245    0.9253    0.4666 C   0  0  0  0  0  0  0  0  0  0  0  0
   -0.2613    3.5812   -0.7293 C   0  0  0  0  0  0  0  0  0  0  0  0
    0.6723    3.9366   -1.8558 C   0  0  0  0  0  0  0  0  0  0  0  0
    0.5815   -2.1899   -0.5446 C   0  0  0  0  0  0  0  0  0  0  0  0
   -0.6575    2.5194    1.4044 C   0  0  0  0  0  0  0  0  0  0  0  0
    2.1638   -4.0156   -0.5143 C   0  0  0  0  0  0  0  0  0  0  0  0
    0.2081    2.8493    0.3616 C   0  0  0  0  0  0  0  0  0  0  0  0
   -0.4726   -3.1034   -0.5459 C   0  0  0  0  0  0  0  0  0  0  0  0
    6.1483    1.1495   -0.3746 C   0  0  0  0  0  0  0  0  0  0  0  0
    2.7946   -1.0210    2.8568 C   0  0  0  0  0  0  0  0  0  0  0  0
    0.8498    0.8157    2.6247 C   0  0  0  0  0  0  0  0  0  0  0  0
   -1.9924    2.9212    1.3567 C   0  0  0  0  0  0  0  0  0  0  0  0
   -1.5962    3.9833   -0.7769 C   0  0  0  0  0  0  0  0  0  0  0  0
    1.1097   -4.9291   -0.5154 C   0  0  0  0  0  0  0  0  0  0  0  0
   -0.2085   -4.4731   -0.5314 C   0  0  0  0  0  0  0  0  0  0  0  0
   -2.4618    3.6532    0.2659 C   0  0  0  0  0  0  0  0  0  0  0  0
    2.0335   -0.6164    3.9345 C   0  0  0  0  0  0  0  0  0  0  0  0
    0.2942    2.1034   -3.3621 C   0  0  0  0  0  0  0  0  0  0  0  0
    2.4749    3.0993   -3.2054 C   0  0  0  0  0  0  0  0  0  0  0  0
   -2.2460   -1.3226   -0.5779 C   0  0  0  0  0  0  0  0  0  0  0  0
   -3.7225   -1.1560   -0.6221 C   0  0  0  0  0  0  0  0  0  0  0  0
   -3.5674    1.3792    2.2494 C   0  0  0  0  0  0  0  0  0  0  0  0
   -4.5504   -2.1164   -0.0408 C   0  0  0  0  0  0  0  0  0  0  0  0
   -4.2800   -0.0393   -1.2449 C   0  0  0  0  0  0  0  0  0  0  0  0
   -5.9359   -1.9602   -0.0822 C   0  0  0  0  0  0  0  0  0  0  0  0
   -5.6656    0.1169   -1.2864 C   0  0  0  0  0  0  0  0  0  0  0  0
   -6.4935   -0.8435   -0.7048 C   0  0  0  0  0  0  0  0  0  0  0  0
    4.9078    1.4573    1.3805 H   0  0  0  0  0  0  0  0  0  0  0  0
    0.1775    4.5728   -2.6020 H   0  0  0  0  0  0  0  0  0  0  0  0
    1.4583    4.5617   -1.4089 H   0  0  0  0  0  0  0  0  0  0  0  0
    0.4338   -1.1197   -0.5779 H   0  0  0  0  0  0  0  0  0  0  0  0
    3.1853   -4.3882   -0.5003 H   0  0  0  0  0  0  0  0  0  0  0  0
    1.2634    2.5976    0.3941 H   0  0  0  0  0  0  0  0  0  0  0  0
    6.9072    1.9081   -0.2454 H   0  0  0  0  0  0  0  0  0  0  0  0
    3.5758   -1.7631    2.9645 H   0  0  0  0  0  0  0  0  0  0  0  0
   -0.7285    1.8676    3.3462 H   0  0  0  0  0  0  0  0  0  0  0  0
   -1.9763    4.5523   -1.6211 H   0  0  0  0  0  0  0  0  0  0  0  0
    1.3153   -5.9955   -0.5035 H   0  0  0  0  0  0  0  0  0  0  0  0
   -1.0200   -5.1965   -0.5319 H   0  0  0  0  0  0  0  0  0  0  0  0
   -3.5007    3.9688    0.2213 H   0  0  0  0  0  0  0  0  0  0  0  0
    2.1989   -1.0331    4.9223 H   0  0  0  0  0  0  0  0  0  0  0  0
   -2.4912   -3.3858   -0.5831 H   0  0  0  0  0  0  0  0  0  0  0  0
   -0.0271    2.7634   -4.1763 H   0  0  0  0  0  0  0  0  0  0  0  0
    0.7308    1.2021   -3.8076 H   0  0  0  0  0  0  0  0  0  0  0  0
   -0.5947    1.7707   -2.8151 H   0  0  0  0  0  0  0  0  0  0  0  0
    2.9291    2.2057   -3.6482 H   0  0  0  0  0  0  0  0  0  0  0  0
    2.2809    3.8216   -4.0066 H   0  0  0  0  0  0  0  0  0  0  0  0
    3.2247    3.5247   -2.5289 H   0  0  0  0  0  0  0  0  0  0  0  0
   -4.2990    1.4460    1.4396 H   0  0  0  0  0  0  0  0  0  0  0  0
   -2.8843    0.5416    2.0778 H   0  0  0  0  0  0  0  0  0  0  0  0
   -4.1023    1.2049    3.1870 H   0  0  0  0  0  0  0  0  0  0  0  0
   -6.5802   -2.7081    0.3706 H   0  0  0  0  0  0  0  0  0  0  0  0
   -6.0993    0.9867   -1.7709 H   0  0  0  0  0  0  0  0  0  0  0  0
   -7.5722   -0.7216   -0.7368 H   0  0  0  0  0  0  0  0  0  0  0  0
  1 15  1  0  0  0  0
  1 26  1  0  0  0  0
  2 40  1  0  0  0  0
  3 41  1  0  0  0  0
  4 29  1  0  0  0  0
  4 39  1  0  0  0  0
  5 37  2  0  0  0  0
  6 13  1  0  0  0  0
  6 15  1  0  0  0  0
  6 18  1  0  0  0  0
  7 14  1  0  0  0  0
  7 15  2  0  0  0  0
  8 20  1  0  0  0  0
  8 35  1  0  0  0  0
  8 36  1  0  0  0  0
  9 17  2  0  0  0  0
  9 28  1  0  0  0  0
 10 22  1  0  0  0  0
 10 28  1  0  0  0  0
 10 53  1  0  0  0  0
 11 25  1  0  0  0  0
 11 37  1  0  0  0  0
 11 59  1  0  0  0  0
 12 28  2  0  0  0  0
 12 34  1  0  0  0  0
 13 14  2  0  0  0  0
 13 17  1  0  0  0  0
 14 16  1  0  0  0  0
 16 21  2  0  0  0  0
 16 23  1  0  0  0  0
 17 27  1  0  0  0  0
 18 26  2  0  0  0  0
 18 45  1  0  0  0  0
 19 20  1  0  0  0  0
 19 24  2  0  0  0  0
 19 30  1  0  0  0  0
 20 46  1  0  0  0  0
 20 47  1  0  0  0  0
 21 25  1  0  0  0  0
 21 48  1  0  0  0  0
 22 24  1  0  0  0  0
 22 29  2  0  0  0  0
 23 31  2  0  0  0  0
 23 49  1  0  0  0  0
 24 50  1  0  0  0  0
 25 32  2  0  0  0  0
 26 51  1  0  0  0  0
 27 34  2  0  0  0  0
 27 52  1  0  0  0  0
 29 33  1  0  0  0  0
 30 33  2  0  0  0  0
 30 54  1  0  0  0  0
 31 32  1  0  0  0  0
 31 55  1  0  0  0  0
 32 56  1  0  0  0  0
 33 57  1  0  0  0  0
 34 58  1  0  0  0  0
 35 60  1  0  0  0  0
 35 61  1  0  0  0  0
 35 62  1  0  0  0  0
 36 63  1  0  0  0  0
 36 64  1  0  0  0  0
 36 65  1  0  0  0  0
 37 38  1  0  0  0  0
 38 40  2  0  0  0  0
 38 41  1  0  0  0  0
 39 66  1  0  0  0  0
 39 67  1  0  0  0  0
 39 68  1  0  0  0  0
 40 42  1  0  0  0  0
 41 43  2  0  0  0  0
 42 44  2  0  0  0  0
 42 69  1  0  0  0  0
 43 44  1  0  0  0  0
 43 70  1  0  0  0  0
 44 71  1  0  0  0  0
M  END
> <PUBCHEM_COMPOUND_CID>
49830414

> <PUBCHEM_CONFORMER_RMSD>
1.2

> <PUBCHEM_CONFORMER_DIVERSEORDER>
1
232
285
224
254
127
110
139
292
214
76
157
95
140
2
300
211
235
102
135
221
295
63
128
199
241
18
41
202
250
91
239
191
35
303
66
270
75
301
122
56
99
64
14
271
118
60
45
229
65
94
86
291
164
123
84
167
209
147
213
73
62
274
174
253
71
149
121
192
150
175
10
125
163
46
180
151
185
98
203
142
161
288
259
92
237
183
131
267
205
55
196
216
111
255
48
117
38
249
173
242
13
226
132
290
220
80
136
265
170
126
130
59
231
137
162
58
78
114
4
178
115
207
280
264
21
289
49
273
6
15
246
269
298
240
293
11
258
275
24
287
284
262
158
113
219
67
201
112
138
87
30
263
16
230
187
44
260
193
42
109
105
5
159
243
247
40
206
302
3
218
154
9
266
29
305
119
52
17
177
256
210
297
200
238
299
31
82
104
96
276
195
182
107
37
74
204
228
217
89
252
294
129
181
34
124
81
244
133
93
106
134
257
148
141
39
53
282
215
227
72
155
190
19
169
12
160
281
272
97
83
70
171
77
7
120
184
54
23
32
79
8
61
108
296
153
279
277
172
101
33
245
278
51
68
100
85
261
28
236
189
212
268
103
197
43
188
304
26
283
223
146
186
69
179
145
152
36
47
248
225
143
57
176
251
22
50
156
90
20
198
166
168
144
27
208
194
165
25
234
88
116
233
222
286

> <PUBCHEM_MMFF94_PARTIAL_CHARGES>
60
1 -0.16
10 -0.6
11 -0.55
12 -0.62
13 -0.2
14 0.17
15 0.24
16 0.05
17 0.36
18 -0.18
19 -0.14
2 -0.19
20 0.41
21 -0.15
22 0.1
23 -0.15
24 -0.15
25 0.12
26 -0.05
27 -0.15
28 0.72
29 0.08
3 -0.19
30 -0.15
31 -0.15
32 -0.15
33 -0.15
34 0.16
35 0.27
36 0.27
37 0.54
38 0.09
39 0.28
4 -0.36
40 0.19
41 0.19
42 -0.15
43 -0.15
44 -0.15
45 0.15
48 0.15
49 0.15
5 -0.57
50 0.15
51 0.15
52 0.15
53 0.4
54 0.15
55 0.15
56 0.15
57 0.15
58 0.15
59 0.37
6 0.33
69 0.15
7 -0.57
70 0.15
71 0.15
8 -0.81
9 -0.62

> <PUBCHEM_EFFECTIVE_ROTOR_COUNT>
10

> <PUBCHEM_PHARMACOPHORE_FEATURES>
14
1 10 donor
1 11 donor
1 4 acceptor
1 5 acceptor
1 8 cation
1 9 acceptor
3 6 7 15 cation
4 9 10 12 28 cation
5 1 6 15 18 26 rings
5 6 7 13 14 15 rings
6 16 21 23 25 31 32 rings
6 19 22 24 29 30 33 rings
6 38 40 41 42 43 44 rings
6 9 12 17 27 28 34 rings

> <PUBCHEM_HEAVY_ATOM_COUNT>
44

> <PUBCHEM_ATOM_DEF_STEREO_COUNT>
0

> <PUBCHEM_ATOM_UDEF_STEREO_COUNT>
0

> <PUBCHEM_BOND_DEF_STEREO_COUNT>
0

> <PUBCHEM_BOND_UDEF_STEREO_COUNT>
0

> <PUBCHEM_ISOTOPIC_ATOM_COUNT>
0

> <PUBCHEM_COMPONENT_COUNT>
1

> <PUBCHEM_CACTVS_TAUTO_COUNT>
6

> <PUBCHEM_CONFORMER_ID>
02F85A0E00000001

> <PUBCHEM_MMFF94_ENERGY>
150.0065

> <PUBCHEM_FEATURE_SELFOVERLAP>
71.302

> <PUBCHEM_SHAPE_FINGERPRINT>
10190206 1 18339095843275606862
10670039 82 18271251534508286598
11421498 54 17604410952065874378
11513181 2 17631458869062880567
12758862 11 18130228276878988130
13726171 33 18260823757113581861
140371 6 18336838528370868743
15001296 14 18335699498306091757
15210252 30 18336261340368447118
15264996 19 17273715169154480497
15297060 5 18272092651749234593
20587220 17 15697131068377577337
20764821 26 18126563651171925255
21987440 362 17478873339596234272
23559900 14 18337101380654188015
25223398 141 18124007102064113618
469060 322 18336835186474712613
550186 83 18189872353334741051
86090 222 17915433147726119883

> <PUBCHEM_SHAPE_MULTIPOLES>
848.2
11.21
6.1
3.3
3.41
0.88
2.28
3.22
-3.83
1.45
-2.52
-1.98
-2.42
-1.58

> <PUBCHEM_SHAPE_SELFOVERLAP>
1869.018

> <PUBCHEM_SHAPE_VOLUME>
463.2

> <PUBCHEM_COORDINATE_TYPE>
2
5
10

$$$$
