44580420
  -OEChem-10062122033D

 63 67  0     0  0  0  0  0  0999 V2000
   -6.2540   -4.6288   -0.8867 O   0  0  0  0  0  0  0  0  0  0  0  0
   -2.5409    3.8551    0.9175 O   0  0  0  0  0  0  0  0  0  0  0  0
    6.0276   -2.2262    1.1971 O   0  0  0  0  0  0  0  0  0  0  0  0
   -5.4748   -2.0568   -0.0642 N   0  0  0  0  0  0  0  0  0  0  0  0
   -2.3600    1.6357    0.1624 N   0  0  0  0  0  0  0  0  0  0  0  0
    5.8058   -2.8448   -0.9412 N   0  0  0  0  0  0  0  0  0  0  0  0
    6.7134   -3.6980   -0.3417 N   0  0  0  0  0  0  0  0  0  0  0  0
   -5.3157   -2.4685   -1.4657 C   0  0  0  0  0  0  0  0  0  0  0  0
   -6.4830   -2.8039    0.6956 C   0  0  0  0  0  0  0  0  0  0  0  0
   -5.1632   -3.9834   -1.5432 C   0  0  0  0  0  0  0  0  0  0  0  0
   -6.2689   -4.3011    0.5023 C   0  0  0  0  0  0  0  0  0  0  0  0
   -5.1929   -0.7281    0.2696 C   0  0  0  0  0  0  0  0  0  0  0  0
   -3.9172   -0.2089    0.0494 C   0  0  0  0  0  0  0  0  0  0  0  0
   -6.1877    0.0778    0.8234 C   0  0  0  0  0  0  0  0  0  0  0  0
   -3.6363    1.1161    0.3826 C   0  0  0  0  0  0  0  0  0  0  0  0
    1.7853    2.3506   -0.1748 C   0  0  0  0  0  0  0  0  0  0  0  0
    2.7116    1.2361   -0.1515 C   0  0  0  0  0  0  0  0  0  0  0  0
   -5.9068    1.4028    1.1570 C   0  0  0  0  0  0  0  0  0  0  0  0
    2.2169    3.6384   -0.4926 C   0  0  0  0  0  0  0  0  0  0  0  0
   -4.6311    1.9219    0.9366 C   0  0  0  0  0  0  0  0  0  0  0  0
   -0.4673    3.1760    0.1107 C   0  0  0  0  0  0  0  0  0  0  0  0
    2.9492    0.4732   -1.2949 C   0  0  0  0  0  0  0  0  0  0  0  0
    0.4432    2.1195    0.1269 C   0  0  0  0  0  0  0  0  0  0  0  0
   -1.8978    2.9306    0.4320 C   0  0  0  0  0  0  0  0  0  0  0  0
    3.3712    0.9318    1.0393 C   0  0  0  0  0  0  0  0  0  0  0  0
    1.3064    4.6950   -0.5085 C   0  0  0  0  0  0  0  0  0  0  0  0
   -0.0357    4.4639   -0.2070 C   0  0  0  0  0  0  0  0  0  0  0  0
    3.8463   -0.5939   -1.2473 C   0  0  0  0  0  0  0  0  0  0  0  0
    4.5056   -0.8983   -0.0564 C   0  0  0  0  0  0  0  0  0  0  0  0
    4.2680   -0.1355    1.0870 C   0  0  0  0  0  0  0  0  0  0  0  0
    3.6472    3.9247   -0.8213 C   0  0  0  0  0  0  0  0  0  0  0  0
    2.2611    0.7700   -2.5887 C   0  0  0  0  0  0  0  0  0  0  0  0
    5.4320   -2.0028   -0.0062 C   0  0  0  0  0  0  0  0  0  0  0  0
    6.8119   -3.2996    0.9051 C   0  0  0  0  0  0  0  0  0  0  0  0
    7.6305   -3.8403    1.9976 C   0  0  0  0  0  0  0  0  0  0  0  0
   -4.4449   -2.0025   -1.9394 H   0  0  0  0  0  0  0  0  0  0  0  0
   -6.2078   -2.1564   -2.0230 H   0  0  0  0  0  0  0  0  0  0  0  0
   -7.4822   -2.5325    0.3332 H   0  0  0  0  0  0  0  0  0  0  0  0
   -6.4236   -2.5769    1.7666 H   0  0  0  0  0  0  0  0  0  0  0  0
   -5.1623   -4.3055   -2.5893 H   0  0  0  0  0  0  0  0  0  0  0  0
   -4.2192   -4.3136   -1.0929 H   0  0  0  0  0  0  0  0  0  0  0  0
   -5.3317   -4.6336    0.9650 H   0  0  0  0  0  0  0  0  0  0  0  0
   -7.0858   -4.8588    0.9712 H   0  0  0  0  0  0  0  0  0  0  0  0
   -3.1339   -0.8374   -0.3692 H   0  0  0  0  0  0  0  0  0  0  0  0
   -7.1956   -0.2889    0.9958 H   0  0  0  0  0  0  0  0  0  0  0  0
   -6.6830    2.0304    1.5852 H   0  0  0  0  0  0  0  0  0  0  0  0
   -4.4930    2.9555    1.2202 H   0  0  0  0  0  0  0  0  0  0  0  0
    0.1415    1.1135    0.4079 H   0  0  0  0  0  0  0  0  0  0  0  0
   -1.7216    0.9821   -0.2822 H   0  0  0  0  0  0  0  0  0  0  0  0
    3.1986    1.5161    1.9403 H   0  0  0  0  0  0  0  0  0  0  0  0
    1.6245    5.7046   -0.7550 H   0  0  0  0  0  0  0  0  0  0  0  0
   -0.7302    5.2995   -0.2302 H   0  0  0  0  0  0  0  0  0  0  0  0
    4.0291   -1.1868   -2.1411 H   0  0  0  0  0  0  0  0  0  0  0  0
    4.7627   -0.3423    2.0325 H   0  0  0  0  0  0  0  0  0  0  0  0
    3.8066    4.9864   -1.0409 H   0  0  0  0  0  0  0  0  0  0  0  0
    3.9667    3.3658   -1.7061 H   0  0  0  0  0  0  0  0  0  0  0  0
    4.2970    3.6740    0.0235 H   0  0  0  0  0  0  0  0  0  0  0  0
    2.5593    0.0690   -3.3764 H   0  0  0  0  0  0  0  0  0  0  0  0
    2.5112    1.7738   -2.9455 H   0  0  0  0  0  0  0  0  0  0  0  0
    1.1752    0.6813   -2.4796 H   0  0  0  0  0  0  0  0  0  0  0  0
    8.2219   -4.6940    1.6536 H   0  0  0  0  0  0  0  0  0  0  0  0
    6.9964   -4.1755    2.8237 H   0  0  0  0  0  0  0  0  0  0  0  0
    8.3190   -3.0789    2.3758 H   0  0  0  0  0  0  0  0  0  0  0  0
  1 10  1  0  0  0  0
  1 11  1  0  0  0  0
  2 24  2  0  0  0  0
  3 33  1  0  0  0  0
  3 34  1  0  0  0  0
  4  8  1  0  0  0  0
  4  9  1  0  0  0  0
  4 12  1  0  0  0  0
  5 15  1  0  0  0  0
  5 24  1  0  0  0  0
  5 49  1  0  0  0  0
  6  7  1  0  0  0  0
  6 33  2  0  0  0  0
  7 34  2  0  0  0  0
  8 10  1  0  0  0  0
  8 36  1  0  0  0  0
  8 37  1  0  0  0  0
  9 11  1  0  0  0  0
  9 38  1  0  0  0  0
  9 39  1  0  0  0  0
 10 40  1  0  0  0  0
 10 41  1  0  0  0  0
 11 42  1  0  0  0  0
 11 43  1  0  0  0  0
 12 13  1  0  0  0  0
 12 14  2  0  0  0  0
 13 15  2  0  0  0  0
 13 44  1  0  0  0  0
 14 18  1  0  0  0  0
 14 45  1  0  0  0  0
 15 20  1  0  0  0  0
 16 17  1  0  0  0  0
 16 19  2  0  0  0  0
 16 23  1  0  0  0  0
 17 22  2  0  0  0  0
 17 25  1  0  0  0  0
 18 20  2  0  0  0  0
 18 46  1  0  0  0  0
 19 26  1  0  0  0  0
 19 31  1  0  0  0  0
 20 47  1  0  0  0  0
 21 23  2  0  0  0  0
 21 24  1  0  0  0  0
 21 27  1  0  0  0  0
 22 28  1  0  0  0  0
 22 32  1  0  0  0  0
 23 48  1  0  0  0  0
 25 30  2  0  0  0  0
 25 50  1  0  0  0  0
 26 27  2  0  0  0  0
 26 51  1  0  0  0  0
 27 52  1  0  0  0  0
 28 29  2  0  0  0  0
 28 53  1  0  0  0  0
 29 30  1  0  0  0  0
 29 33  1  0  0  0  0
 30 54  1  0  0  0  0
 31 55  1  0  0  0  0
 31 56  1  0  0  0  0
 31 57  1  0  0  0  0
 32 58  1  0  0  0  0
 32 59  1  0  0  0  0
 32 60  1  0  0  0  0
 34 35  1  0  0  0  0
 35 61  1  0  0  0  0
 35 62  1  0  0  0  0
 35 63  1  0  0  0  0
M  END
> <PUBCHEM_COMPOUND_CID>
44580420

> <PUBCHEM_CONFORMER_RMSD>
1

> <PUBCHEM_CONFORMER_DIVERSEORDER>
5
83
77
29
31
13
80
47
85
68
81
16
86
52
66
76
69
41
63
33
79
35
22
75
59
84
70
45
72
61
78
51
1
42
9
67
53
46
82
49
56
17
57
58
15
44
30
62
27
54
34
60
48
6
18
64
26
32
8
19
73
71
7
21
24
12
20
23
3
28
74
43
38
4
55
40
11
65
39
37
25
2
14
10
50
36

> <PUBCHEM_MMFF94_PARTIAL_CHARGES>
44
1 -0.56
10 0.28
11 0.28
12 0.1
13 -0.15
14 -0.15
15 0.12
18 -0.15
19 -0.14
2 -0.57
20 -0.15
21 0.09
22 -0.14
23 -0.15
24 0.54
25 -0.15
26 -0.15
27 -0.15
28 -0.15
29 0.05
3 -0.28
30 -0.15
31 0.14
32 0.14
33 0.43
34 0.3
35 0.18
4 -0.84
44 0.15
45 0.15
46 0.15
47 0.15
48 0.15
49 0.37
5 -0.55
50 0.15
51 0.15
52 0.15
53 0.15
54 0.15
6 -0.34
7 -0.34
8 0.37
9 0.37

> <PUBCHEM_EFFECTIVE_ROTOR_COUNT>
7.2

> <PUBCHEM_PHARMACOPHORE_FEATURES>
9
1 1 acceptor
1 2 acceptor
1 4 cation
1 5 donor
5 3 6 7 33 34 rings
6 1 4 8 9 10 11 rings
6 12 13 14 15 18 20 rings
6 16 19 21 23 26 27 rings
6 17 22 25 28 29 30 rings

> <PUBCHEM_HEAVY_ATOM_COUNT>
35

> <PUBCHEM_ATOM_DEF_STEREO_COUNT>
0

> <PUBCHEM_ATOM_UDEF_STEREO_COUNT>
0

> <PUBCHEM_BOND_DEF_STEREO_COUNT>
0

> <PUBCHEM_BOND_UDEF_STEREO_COUNT>
0

> <PUBCHEM_ISOTOPIC_ATOM_COUNT>
0

> <PUBCHEM_COMPONENT_COUNT>
1

> <PUBCHEM_CACTVS_TAUTO_COUNT>
9

> <PUBCHEM_CONFORMER_ID>
02A83E4400000005

> <PUBCHEM_MMFF94_ENERGY>
117.1106

> <PUBCHEM_FEATURE_SELFOVERLAP>
45.673

> <PUBCHEM_SHAPE_FINGERPRINT>
10100884 174 18042125354701214386
10254770 206 18339077082431507923
10622 236 18341610481939238733
11136131 41 18051126188307642712
11409948 35 18194400229584675275
11478447 58 18048311442546041970
11607047 403 18125710439039692080
117089 54 18339085998704947955
11963148 33 18267867361908150740
12107183 9 18341627975589715801
12166972 35 17749682796256839836
12174731 88 18342174480028528991
12422481 6 17275103911952652957
13165053 68 18339654344165753566
13553639 21 18193848265176688315
1361 4 18337675311973542499
13690498 29 17823141124747873021
14068700 675 18189059690458181352
14664723 55 10663521739183631602
15264996 151 18194120948665092749
15320294 125 18190750726319369933
15399243 27 18339094786076380875
15467298 65 17909548707597361023
15684393 108 17750817595583748495
16628084 112 18266740371997571023
17492 89 18411139173147408745
19303781 99 18041001708949795610
19319366 153 17549259680671706429
20775438 99 18115873082366346048
208703 8 18408878551507892363
21133410 171 16552794205414951895
22956985 138 18410005555743952736
23569914 152 11748036999557063216
25222932 49 17912090744020690909
2748736 6 9367349197793876891
2835447 4 17914904372479625776
32027 91 18411975862994551269
3504750 166 17756419362756828378
397830 11 18198327474379844392
4017518 198 17690280409298730133
4756088 132 17975685092101670162
50009960 94 18340192072615120519
5047190 6 17700948155095902095
5104073 3 17988373662734064809
6058803 2 18267606730804327809
6201320 77 17317632090878932835
6201460 15 18268989972229279775
7970288 3 18337955584475396170
9555976 147 17775018894651735721

> <PUBCHEM_SHAPE_MULTIPOLES>
682.75
21.06
7.84
1.5
3.45
1.09
-0.44
35.48
4.8
-0.94
-0.22
-0.92
0.82
-5.1

> <PUBCHEM_SHAPE_SELFOVERLAP>
1499.965

> <PUBCHEM_SHAPE_VOLUME>
370.1

> <PUBCHEM_COORDINATE_TYPE>
2
5
10

$$$$
