14802482
  -OEChem-10062121593D

 34 35  0     0  0  0  0  0  0999 V2000
    0.3268    0.7058    1.3077 S   0  0  0  0  0  0  0  0  0  0  0  0
    0.9671    2.0080    1.3967 O   0  0  0  0  0  0  0  0  0  0  0  0
   -0.0046   -0.0198    2.5228 O   0  0  0  0  0  0  0  0  0  0  0  0
    4.9845   -1.1772   -0.6183 O   0  0  0  0  0  0  0  0  0  0  0  0
    4.2095    0.9070   -0.0041 O   0  0  0  0  0  0  0  0  0  0  0  0
    1.2630   -0.3037    0.2990 N   0  0  0  0  0  0  0  0  0  0  0  0
   -3.9126   -2.2599   -0.2078 N   0  0  0  0  0  0  0  0  0  0  0  0
   -1.1554    0.8799    0.3804 C   0  0  0  0  0  0  0  0  0  0  0  0
   -2.0620   -0.1765    0.1946 C   0  0  0  0  0  0  0  0  0  0  0  0
    1.6102    0.1329   -1.0610 C   0  0  0  0  0  0  0  0  0  0  0  0
   -3.2292    0.0466   -0.5648 C   0  0  0  0  0  0  0  0  0  0  0  0
   -1.4033    2.1352   -0.1778 C   0  0  0  0  0  0  0  0  0  0  0  0
    2.9168   -0.5137   -1.5008 C   0  0  0  0  0  0  0  0  0  0  0  0
   -3.4685    1.3136   -1.1221 C   0  0  0  0  0  0  0  0  0  0  0  0
   -1.8420   -1.4459    0.7415 C   0  0  0  0  0  0  0  0  0  0  0  0
   -2.5573    2.3514   -0.9275 C   0  0  0  0  0  0  0  0  0  0  0  0
   -4.1068   -1.0271   -0.7279 C   0  0  0  0  0  0  0  0  0  0  0  0
   -2.7849   -2.4366    0.5133 C   0  0  0  0  0  0  0  0  0  0  0  0
    4.0870   -0.1468   -0.6132 C   0  0  0  0  0  0  0  0  0  0  0  0
    6.1618   -0.9730    0.1694 C   0  0  0  0  0  0  0  0  0  0  0  0
    1.7070    1.2230   -1.0974 H   0  0  0  0  0  0  0  0  0  0  0  0
    0.8089   -0.1659   -1.7446 H   0  0  0  0  0  0  0  0  0  0  0  0
    1.2171   -1.3195    0.4473 H   0  0  0  0  0  0  0  0  0  0  0  0
   -0.7183    2.9685   -0.0541 H   0  0  0  0  0  0  0  0  0  0  0  0
    3.1631   -0.2104   -2.5239 H   0  0  0  0  0  0  0  0  0  0  0  0
    2.7940   -1.6038   -1.4877 H   0  0  0  0  0  0  0  0  0  0  0  0
   -4.3643    1.4996   -1.7102 H   0  0  0  0  0  0  0  0  0  0  0  0
   -0.9678   -1.7322    1.3086 H   0  0  0  0  0  0  0  0  0  0  0  0
   -2.7478    3.3285   -1.3621 H   0  0  0  0  0  0  0  0  0  0  0  0
   -5.0238   -0.9230   -1.3013 H   0  0  0  0  0  0  0  0  0  0  0  0
   -2.6466   -3.4360    0.9134 H   0  0  0  0  0  0  0  0  0  0  0  0
    6.7218   -0.1100   -0.2032 H   0  0  0  0  0  0  0  0  0  0  0  0
    6.7893   -1.8637    0.0801 H   0  0  0  0  0  0  0  0  0  0  0  0
    5.8943   -0.8359    1.2215 H   0  0  0  0  0  0  0  0  0  0  0  0
  1  2  2  0  0  0  0
  1  3  2  0  0  0  0
  1  6  1  0  0  0  0
  1  8  1  0  0  0  0
  4 19  1  0  0  0  0
  4 20  1  0  0  0  0
  5 19  2  0  0  0  0
  6 10  1  0  0  0  0
  6 23  1  0  0  0  0
  7 17  2  0  0  0  0
  7 18  1  0  0  0  0
  8  9  1  0  0  0  0
  8 12  2  0  0  0  0
  9 11  2  0  0  0  0
  9 15  1  0  0  0  0
 10 13  1  0  0  0  0
 10 21  1  0  0  0  0
 10 22  1  0  0  0  0
 11 14  1  0  0  0  0
 11 17  1  0  0  0  0
 12 16  1  0  0  0  0
 12 24  1  0  0  0  0
 13 19  1  0  0  0  0
 13 25  1  0  0  0  0
 13 26  1  0  0  0  0
 14 16  2  0  0  0  0
 14 27  1  0  0  0  0
 15 18  2  0  0  0  0
 15 28  1  0  0  0  0
 16 29  1  0  0  0  0
 17 30  1  0  0  0  0
 18 31  1  0  0  0  0
 20 32  1  0  0  0  0
 20 33  1  0  0  0  0
 20 34  1  0  0  0  0
M  END
> <PUBCHEM_COMPOUND_CID>
14802482

> <PUBCHEM_CONFORMER_RMSD>
0.8

> <PUBCHEM_CONFORMER_DIVERSEORDER>
1
18
32
54
37
60
30
64
78
53
45
10
51
81
76
71
47
16
50
75
12
29
40
70
24
8
20
38
62
26
65
34
57
69
11
66
73
72
2
74
48
77
61
63
27
42
22
49
58
13
25
67
28
36
19
46
6
5
80
68
55
56
39
31
21
35
23
9
79
17
43
59
15
44
41
33
4
52
3
14
7

> <PUBCHEM_MMFF94_PARTIAL_CHARGES>
25
1 1.45
10 0.36
12 -0.15
13 0.06
14 -0.15
15 -0.15
16 -0.15
17 0.16
18 0.16
19 0.66
2 -0.65
20 0.28
23 0.42
24 0.15
27 0.15
28 0.15
29 0.15
3 -0.65
30 0.15
31 0.15
4 -0.43
5 -0.57
6 -0.91
7 -0.62
8 -0.01

> <PUBCHEM_EFFECTIVE_ROTOR_COUNT>
6

> <PUBCHEM_PHARMACOPHORE_FEATURES>
7
1 2 acceptor
1 3 acceptor
1 5 acceptor
1 6 donor
1 7 acceptor
6 7 9 11 15 17 18 rings
6 8 9 11 12 14 16 rings

> <PUBCHEM_HEAVY_ATOM_COUNT>
20

> <PUBCHEM_ATOM_DEF_STEREO_COUNT>
0

> <PUBCHEM_ATOM_UDEF_STEREO_COUNT>
0

> <PUBCHEM_BOND_DEF_STEREO_COUNT>
0

> <PUBCHEM_BOND_UDEF_STEREO_COUNT>
0

> <PUBCHEM_ISOTOPIC_ATOM_COUNT>
0

> <PUBCHEM_COMPONENT_COUNT>
1

> <PUBCHEM_CACTVS_TAUTO_COUNT>
1

> <PUBCHEM_CONFORMER_ID>
00E1DE3200000001

> <PUBCHEM_MMFF94_ENERGY>
37.0915

> <PUBCHEM_FEATURE_SELFOVERLAP>
35.568

> <PUBCHEM_SHAPE_FINGERPRINT>
11370993 70 18336546019428054334
11552529 35 10807633568252423588
121448 382 18040152932985476288
13544592 145 18342450483163695669
13544653 18 17060625477536670580
13583140 156 18272362054274184350
13994607 96 8502375494924418971
14251740 79 18334299734172977010
14251764 30 17606701368189565947
14341114 328 12535343511263882510
14790565 3 17907580225264634257
16945 1 18115568466533007865
17349148 13 17168148936041511008
1813 80 15554458417808635528
192875 21 17531254992955894172
19489759 90 18334573512974052678
19862831 5 16950560029794975807
200 152 17275101691886979372
20300324 65 18259706700464572332
20374829 77 18341612655024100015
20645476 183 17385997352659664791
20775530 9 17054702631721226839
20871999 31 18408879621138982269
21304303 282 17553762859302396832
21728266 224 18334849498935443626
23402539 116 18260265235339157180
23419403 2 17774431801869634689
23557571 272 18413109446128056932
23559900 14 18411411796502081232
23598291 2 17169250560281624051
25122255 55 18130235839847210430
2748010 2 17828464097709748365
4921388 177 18408891711155233805
5283173 99 18337104580072643764
559249 180 18114739318337765770
633830 44 15864362320048592796

> <PUBCHEM_SHAPE_MULTIPOLES>
382
9.98
2.32
1.46
15.64
0.01
-0.59
4.15
3.25
-2.75
-0.03
0.25
-0.21
0.77

> <PUBCHEM_SHAPE_SELFOVERLAP>
795.642

> <PUBCHEM_SHAPE_VOLUME>
217.4

> <PUBCHEM_COORDINATE_TYPE>
2
5
10

$$$$
