44427518
  -OEChem-10062122003D

 72 77  0     0  0  0  0  0  0999 V2000
  -11.3899   -2.6224    1.3318 O   0  0  0  0  0  0  0  0  0  0  0  0
    1.9618   -1.2269   -3.5925 O   0  0  0  0  0  0  0  0  0  0  0  0
   -3.5139    2.0932    1.5103 O   0  0  0  0  0  0  0  0  0  0  0  0
    9.4858    0.9283    2.0212 O   0  0  0  0  0  0  0  0  0  0  0  0
   -9.0598   -1.2516    0.5630 N   0  0  0  0  0  0  0  0  0  0  0  0
    2.7790    1.0154    0.0401 N   0  0  0  0  0  0  0  0  0  0  0  0
    0.9437    0.2222   -2.2363 N   0  0  0  0  0  0  0  0  0  0  0  0
   -4.5452    1.8625   -0.5866 N   0  0  0  0  0  0  0  0  0  0  0  0
   10.9272   -1.4789    1.8095 N   0  0  0  0  0  0  0  0  0  0  0  0
  -10.3845   -0.6869    0.2706 C   0  0  0  0  0  0  0  0  0  0  0  0
   -9.0218   -2.2153    1.6683 C   0  0  0  0  0  0  0  0  0  0  0  0
  -11.4095   -1.8097    0.1584 C   0  0  0  0  0  0  0  0  0  0  0  0
  -10.1202   -3.2563    1.4822 C   0  0  0  0  0  0  0  0  0  0  0  0
   -7.9328   -0.4744    0.2761 C   0  0  0  0  0  0  0  0  0  0  0  0
   -7.6904   -0.0535   -1.0315 C   0  0  0  0  0  0  0  0  0  0  0  0
   -7.0517   -0.1199    1.2976 C   0  0  0  0  0  0  0  0  0  0  0  0
    1.4772    1.4759   -0.1554 C   0  0  0  0  0  0  0  0  0  0  0  0
    0.6368    1.1118   -1.1994 C   0  0  0  0  0  0  0  0  0  0  0  0
    3.6196    0.1345   -0.6458 C   0  0  0  0  0  0  0  0  0  0  0  0
    3.3166   -0.5671   -1.8132 C   0  0  0  0  0  0  0  0  0  0  0  0
   -1.1285    2.5672   -0.3135 C   0  0  0  0  0  0  0  0  0  0  0  0
   -5.6853    1.0763   -0.2960 C   0  0  0  0  0  0  0  0  0  0  0  0
   -0.6629    1.6646   -1.2662 C   0  0  0  0  0  0  0  0  0  0  0  0
   -2.5048    3.1289   -0.4178 C   0  0  0  0  0  0  0  0  0  0  0  0
   -6.5668    0.7220   -1.3174 C   0  0  0  0  0  0  0  0  0  0  0  0
   -5.9278    0.6553    1.0115 C   0  0  0  0  0  0  0  0  0  0  0  0
    5.8669   -0.8872   -0.6276 C   0  0  0  0  0  0  0  0  0  0  0  0
    4.9072   -0.0456   -0.0729 C   0  0  0  0  0  0  0  0  0  0  0  0
    0.9832    2.3956    0.8035 C   0  0  0  0  0  0  0  0  0  0  0  0
    2.0423   -0.5285   -2.5738 C   0  0  0  0  0  0  0  0  0  0  0  0
   -0.2995    2.9357    0.7297 C   0  0  0  0  0  0  0  0  0  0  0  0
    4.3070   -1.4204   -2.3648 C   0  0  0  0  0  0  0  0  0  0  0  0
   -3.5685    2.3034    0.3028 C   0  0  0  0  0  0  0  0  0  0  0  0
    5.5638   -1.5793   -1.7824 C   0  0  0  0  0  0  0  0  0  0  0  0
    7.1622   -1.0349   -0.0022 C   0  0  0  0  0  0  0  0  0  0  0  0
    7.7140    0.0244    0.7182 C   0  0  0  0  0  0  0  0  0  0  0  0
    7.8600   -2.2369   -0.1196 C   0  0  0  0  0  0  0  0  0  0  0  0
    8.9636   -0.1183    1.3215 C   0  0  0  0  0  0  0  0  0  0  0  0
    9.1098   -2.3796    0.4834 C   0  0  0  0  0  0  0  0  0  0  0  0
    9.6615   -1.3203    1.2040 C   0  0  0  0  0  0  0  0  0  0  0  0
    9.1743    0.9971    3.4111 C   0  0  0  0  0  0  0  0  0  0  0  0
  -10.3931   -0.1084   -0.6596 H   0  0  0  0  0  0  0  0  0  0  0  0
  -10.6626   -0.0109    1.0887 H   0  0  0  0  0  0  0  0  0  0  0  0
   -9.1837   -1.6851    2.6149 H   0  0  0  0  0  0  0  0  0  0  0  0
   -8.0550   -2.7303    1.7146 H   0  0  0  0  0  0  0  0  0  0  0  0
  -11.2217   -2.4360   -0.7223 H   0  0  0  0  0  0  0  0  0  0  0  0
  -12.4149   -1.3888    0.0579 H   0  0  0  0  0  0  0  0  0  0  0  0
   -9.9247   -3.8915    0.6097 H   0  0  0  0  0  0  0  0  0  0  0  0
  -10.1706   -3.9071    2.3610 H   0  0  0  0  0  0  0  0  0  0  0  0
   -8.3580   -0.3306   -1.8433 H   0  0  0  0  0  0  0  0  0  0  0  0
   -7.2180   -0.4187    2.3287 H   0  0  0  0  0  0  0  0  0  0  0  0
    3.2135    1.4132    0.8692 H   0  0  0  0  0  0  0  0  0  0  0  0
   -1.3276    1.3807   -2.0823 H   0  0  0  0  0  0  0  0  0  0  0  0
   -2.5355    4.1361    0.0189 H   0  0  0  0  0  0  0  0  0  0  0  0
   -2.7602    3.2754   -1.4745 H   0  0  0  0  0  0  0  0  0  0  0  0
   -6.3880    1.0409   -2.3412 H   0  0  0  0  0  0  0  0  0  0  0  0
   -5.2945    0.8916    1.8548 H   0  0  0  0  0  0  0  0  0  0  0  0
    5.1152    0.4822    0.8580 H   0  0  0  0  0  0  0  0  0  0  0  0
    1.6166    2.7020    1.6356 H   0  0  0  0  0  0  0  0  0  0  0  0
    0.1819    0.0949   -2.9004 H   0  0  0  0  0  0  0  0  0  0  0  0
   -0.6305    3.6357    1.4913 H   0  0  0  0  0  0  0  0  0  0  0  0
    4.1227   -1.9845   -3.2777 H   0  0  0  0  0  0  0  0  0  0  0  0
   -4.4486    2.1205   -1.5660 H   0  0  0  0  0  0  0  0  0  0  0  0
    6.2733   -2.2299   -2.2853 H   0  0  0  0  0  0  0  0  0  0  0  0
    7.2168    0.9873    0.8050 H   0  0  0  0  0  0  0  0  0  0  0  0
    7.4572   -3.0981   -0.6456 H   0  0  0  0  0  0  0  0  0  0  0  0
    9.6409   -3.3236    0.3899 H   0  0  0  0  0  0  0  0  0  0  0  0
   11.4279   -2.3526    1.7164 H   0  0  0  0  0  0  0  0  0  0  0  0
   11.3416   -0.7107    2.3201 H   0  0  0  0  0  0  0  0  0  0  0  0
    9.6910    1.8624    3.8353 H   0  0  0  0  0  0  0  0  0  0  0  0
    9.5146    0.0968    3.9323 H   0  0  0  0  0  0  0  0  0  0  0  0
    8.0970    1.1284    3.5544 H   0  0  0  0  0  0  0  0  0  0  0  0
  1 12  1  0  0  0  0
  1 13  1  0  0  0  0
  2 30  2  0  0  0  0
  3 33  2  0  0  0  0
  4 38  1  0  0  0  0
  4 41  1  0  0  0  0
  5 10  1  0  0  0  0
  5 11  1  0  0  0  0
  5 14  1  0  0  0  0
  6 17  1  0  0  0  0
  6 19  1  0  0  0  0
  6 52  1  0  0  0  0
  7 18  1  0  0  0  0
  7 30  1  0  0  0  0
  7 60  1  0  0  0  0
  8 22  1  0  0  0  0
  8 33  1  0  0  0  0
  8 63  1  0  0  0  0
  9 40  1  0  0  0  0
  9 68  1  0  0  0  0
  9 69  1  0  0  0  0
 10 12  1  0  0  0  0
 10 42  1  0  0  0  0
 10 43  1  0  0  0  0
 11 13  1  0  0  0  0
 11 44  1  0  0  0  0
 11 45  1  0  0  0  0
 12 46  1  0  0  0  0
 12 47  1  0  0  0  0
 13 48  1  0  0  0  0
 13 49  1  0  0  0  0
 14 15  2  0  0  0  0
 14 16  1  0  0  0  0
 15 25  1  0  0  0  0
 15 50  1  0  0  0  0
 16 26  2  0  0  0  0
 16 51  1  0  0  0  0
 17 18  2  0  0  0  0
 17 29  1  0  0  0  0
 18 23  1  0  0  0  0
 19 20  2  0  0  0  0
 19 28  1  0  0  0  0
 20 30  1  0  0  0  0
 20 32  1  0  0  0  0
 21 23  2  0  0  0  0
 21 24  1  0  0  0  0
 21 31  1  0  0  0  0
 22 25  2  0  0  0  0
 22 26  1  0  0  0  0
 23 53  1  0  0  0  0
 24 33  1  0  0  0  0
 24 54  1  0  0  0  0
 24 55  1  0  0  0  0
 25 56  1  0  0  0  0
 26 57  1  0  0  0  0
 27 28  2  0  0  0  0
 27 34  1  0  0  0  0
 27 35  1  0  0  0  0
 28 58  1  0  0  0  0
 29 31  2  0  0  0  0
 29 59  1  0  0  0  0
 31 61  1  0  0  0  0
 32 34  2  0  0  0  0
 32 62  1  0  0  0  0
 34 64  1  0  0  0  0
 35 36  2  0  0  0  0
 35 37  1  0  0  0  0
 36 38  1  0  0  0  0
 36 65  1  0  0  0  0
 37 39  2  0  0  0  0
 37 66  1  0  0  0  0
 38 40  2  0  0  0  0
 39 40  1  0  0  0  0
 39 67  1  0  0  0  0
 41 70  1  0  0  0  0
 41 71  1  0  0  0  0
 41 72  1  0  0  0  0
M  END
> <PUBCHEM_COMPOUND_CID>
44427518

> <PUBCHEM_CONFORMER_RMSD>
1

> <PUBCHEM_CONFORMER_DIVERSEORDER>
1
60
68
59
52
6
61
55
11
50
45
34
29
24
38
58
17
37
25
30
69
3
65
2
62
8
20
56
51
16
26
44
47
23
63
22
49
13
14
7
42
40
36
33
4
54
39
19
66
67
32
41
64
12
53
48
9
31
70
15
28
35
57
18
10
46
43
21
27
5

> <PUBCHEM_MMFF94_PARTIAL_CHARGES>
57
1 -0.56
10 0.37
11 0.37
12 0.28
13 0.28
14 0.1
15 -0.15
16 -0.15
17 0.1
18 0.12
19 0.1
2 -0.57
20 0.09
21 -0.14
22 0.12
23 -0.15
24 0.2
25 -0.15
26 -0.15
28 -0.15
29 -0.15
3 -0.57
30 0.54
31 -0.15
32 -0.15
33 0.57
34 -0.15
36 -0.15
37 -0.15
38 0.08
39 -0.15
4 -0.36
40 0.1
41 0.28
5 -0.84
50 0.15
51 0.15
52 0.4
53 0.15
56 0.15
57 0.15
58 0.15
59 0.15
6 -0.6
60 0.37
61 0.15
62 0.15
63 0.37
64 0.15
65 0.15
66 0.15
67 0.15
68 0.4
69 0.4
7 -0.55
8 -0.55
9 -0.9

> <PUBCHEM_EFFECTIVE_ROTOR_COUNT>
8.6

> <PUBCHEM_PHARMACOPHORE_FEATURES>
17
1 1 acceptor
1 2 acceptor
1 3 acceptor
1 4 acceptor
1 5 cation
1 6 cation
1 6 donor
1 7 donor
1 8 donor
1 9 cation
1 9 donor
6 1 5 10 11 12 13 rings
6 14 15 16 22 25 26 rings
6 17 18 21 23 29 31 rings
6 19 20 27 28 32 34 rings
6 35 36 37 38 39 40 rings
7 6 7 17 18 19 20 30 rings

> <PUBCHEM_HEAVY_ATOM_COUNT>
41

> <PUBCHEM_ATOM_DEF_STEREO_COUNT>
0

> <PUBCHEM_ATOM_UDEF_STEREO_COUNT>
0

> <PUBCHEM_BOND_DEF_STEREO_COUNT>
0

> <PUBCHEM_BOND_UDEF_STEREO_COUNT>
0

> <PUBCHEM_ISOTOPIC_ATOM_COUNT>
0

> <PUBCHEM_COMPONENT_COUNT>
1

> <PUBCHEM_CACTVS_TAUTO_COUNT>
271

> <PUBCHEM_CONFORMER_ID>
02A5E8FE00000001

> <PUBCHEM_MMFF94_ENERGY>
191.4328

> <PUBCHEM_FEATURE_SELFOVERLAP>
86.288

> <PUBCHEM_SHAPE_FINGERPRINT>
10483366 6 13190343444222800204
10952577 141 11239993456200989945
11146346 171 18059305250108088206
11181472 205 10592049055498796708
11297010 23 13190337967643638904
11409948 41 15285626669618725896
11409948 8 18201432602131897528
11411753 3 11892777950481601276
11607047 74 17824272711550365780
11828532 37 18191884507876530147
12013929 112 11674877788239161953
12013929 94 18409731738650647872
12124843 1 13407372819156770919
13974486 7 18262800800334585139
14117953 113 14851608744247784216
14359421 15 17822295708840566355
14664723 55 7925909288450366559
14849402 71 16558456557317613184
15065858 18 18335133172450132637
15320295 40 17822293465807126301
15347590 135 17274824618861480458
15510800 12 18341061774519169599
15706992 2 13398629471873498760
16992610 120 9007055764901631081
19303781 99 18409727400918439045
19315958 150 16487259850217784006
20156587 128 15213289804328276637
2026 5 18259989250048627555
20609170 45 8862402924657495720
20737093 207 17386275507595371882
212700 22 18410012122595629903
21792965 20 14490464319210265452
21895431 317 17603579695405544506
22002106 203 18341893030927091231
22149856 69 17202779098193237236
23524908 199 13117995592100021248
23569917 315 18267027151248869158
23576562 1 12541568975669015309
24203241 11 17274530027872540751
24771293 8 16415470550002402276
2851757 41 18336274500671020779
3178227 256 17275098419486240904
3383291 50 18413114961715670343
3986486 107 13840261486272766863
3991529 128 13830129511701310482
4149490 64 18336266846522217533
4339292 15 17894628150066142429
4353968 344 15068899707827045036
44575985 191 9222964680977739707
44575985 210 17024016066039960538
4461854 278 17203333312515300815
474113 269 14851881418942006808
4760202 170 12035738621831906710
5719381 82 18260832605536703267
59682541 35 18131064918737419116
6204607 403 15482668018138921864
9962374 69 18130223861283304245

> <PUBCHEM_SHAPE_MULTIPOLES>
795.38
45.15
3.19
2.47
38.06
0.34
0.52
-42.46
-30.32
4.69
-0.91
-4.79
-0.57
4.24

> <PUBCHEM_SHAPE_SELFOVERLAP>
1753.936

> <PUBCHEM_SHAPE_VOLUME>
423.8

> <PUBCHEM_COORDINATE_TYPE>
2
5
10

$$$$
