24894620
  -OEChem-10062122023D

 55 59  0     0  0  0  0  0  0999 V2000
    4.4963   -0.9553    0.8009 O   0  0  0  0  0  0  0  0  0  0  0  0
   -3.9817    1.5054    0.4055 N   0  0  0  0  0  0  0  0  0  0  0  0
   -4.9041    2.4277    0.8067 N   0  0  0  0  0  0  0  0  0  0  0  0
   -3.8866   -0.7807   -0.3423 N   0  0  0  0  0  0  0  0  0  0  0  0
   -8.2757   -2.2024   -0.3384 N   0  0  0  0  0  0  0  0  0  0  0  0
   -2.1037    2.9047    0.6770 N   0  0  0  0  0  0  0  0  0  0  0  0
   -9.1645   -1.2761    0.0593 N   0  0  0  0  0  0  0  0  0  0  0  0
    3.7886    0.7168   -0.6800 N   0  0  0  0  0  0  0  0  0  0  0  0
    6.0428    0.2634   -0.4610 N   0  0  0  0  0  0  0  0  0  0  0  0
   -4.6002    0.2963    0.0801 C   0  0  0  0  0  0  0  0  0  0  0  0
   -5.9495    0.4760    0.2818 C   0  0  0  0  0  0  0  0  0  0  0  0
   -1.8367    0.6347   -0.1153 C   0  0  0  0  0  0  0  0  0  0  0  0
   -2.5853    1.6765    0.3106 C   0  0  0  0  0  0  0  0  0  0  0  0
   -7.0312   -0.4602    0.0941 C   0  0  0  0  0  0  0  0  0  0  0  0
   -0.3749    0.6569   -0.2612 C   0  0  0  0  0  0  0  0  0  0  0  0
   -6.0737    1.7969    0.7254 C   0  0  0  0  0  0  0  0  0  0  0  0
   -2.6045   -0.6098   -0.4271 C   0  0  0  0  0  0  0  0  0  0  0  0
   -6.9841   -1.7641   -0.3356 C   0  0  0  0  0  0  0  0  0  0  0  0
    0.4134   -0.2218    0.4819 C   0  0  0  0  0  0  0  0  0  0  0  0
    0.2245    1.5556   -1.1435 C   0  0  0  0  0  0  0  0  0  0  0  0
   -8.3983   -0.2140    0.3221 C   0  0  0  0  0  0  0  0  0  0  0  0
    2.4005    0.6973   -0.5395 C   0  0  0  0  0  0  0  0  0  0  0  0
    1.8012   -0.2016    0.3428 C   0  0  0  0  0  0  0  0  0  0  0  0
    1.6122    1.5760   -1.2827 C   0  0  0  0  0  0  0  0  0  0  0  0
   -8.7327   -3.5182   -0.7167 C   0  0  0  0  0  0  0  0  0  0  0  0
    7.2794   -0.2930   -0.0569 C   0  0  0  0  0  0  0  0  0  0  0  0
    4.7545   -0.0857   -0.0251 C   0  0  0  0  0  0  0  0  0  0  0  0
    9.6901   -0.3615   -0.1995 C   0  0  0  0  0  0  0  0  0  0  0  0
    8.4714    0.1864   -0.5998 C   0  0  0  0  0  0  0  0  0  0  0  0
    7.3060   -1.3203    0.8862 C   0  0  0  0  0  0  0  0  0  0  0  0
    9.7167   -1.3888    0.7436 C   0  0  0  0  0  0  0  0  0  0  0  0
    8.5247   -1.8682    1.2865 C   0  0  0  0  0  0  0  0  0  0  0  0
   10.9649    0.1508   -0.7799 C   0  0  0  0  0  0  0  0  0  0  0  0
   -6.9648    2.3442    0.9995 H   0  0  0  0  0  0  0  0  0  0  0  0
   -1.9972   -1.4640   -0.7717 H   0  0  0  0  0  0  0  0  0  0  0  0
   -6.1663   -2.4063   -0.6332 H   0  0  0  0  0  0  0  0  0  0  0  0
   -0.0382   -0.9264    1.1764 H   0  0  0  0  0  0  0  0  0  0  0  0
   -0.3725    2.2427   -1.7384 H   0  0  0  0  0  0  0  0  0  0  0  0
   -8.8807    0.6895    0.6684 H   0  0  0  0  0  0  0  0  0  0  0  0
   -1.1095    3.0914    0.6696 H   0  0  0  0  0  0  0  0  0  0  0  0
   -2.7450    3.6218    0.9934 H   0  0  0  0  0  0  0  0  0  0  0  0
    2.3405   -0.9118    0.9530 H   0  0  0  0  0  0  0  0  0  0  0  0
    2.0659    2.2802   -1.9755 H   0  0  0  0  0  0  0  0  0  0  0  0
    4.1512    1.3987   -1.3417 H   0  0  0  0  0  0  0  0  0  0  0  0
   -9.2379   -3.9669    0.1424 H   0  0  0  0  0  0  0  0  0  0  0  0
   -9.4227   -3.4139   -1.5578 H   0  0  0  0  0  0  0  0  0  0  0  0
   -7.8774   -4.1321   -1.0093 H   0  0  0  0  0  0  0  0  0  0  0  0
    6.1051    1.0074   -1.1513 H   0  0  0  0  0  0  0  0  0  0  0  0
    8.4519    0.9865   -1.3365 H   0  0  0  0  0  0  0  0  0  0  0  0
    6.4292   -1.7461    1.3523 H   0  0  0  0  0  0  0  0  0  0  0  0
   10.6596   -1.8254    1.0623 H   0  0  0  0  0  0  0  0  0  0  0  0
    8.5467   -2.6688    2.0204 H   0  0  0  0  0  0  0  0  0  0  0  0
   11.2013   -0.3889   -1.7023 H   0  0  0  0  0  0  0  0  0  0  0  0
   10.8930    1.2200   -1.0064 H   0  0  0  0  0  0  0  0  0  0  0  0
   11.7977    0.0275   -0.0792 H   0  0  0  0  0  0  0  0  0  0  0  0
  1 27  2  0  0  0  0
  2  3  1  0  0  0  0
  2 10  1  0  0  0  0
  2 13  1  0  0  0  0
  3 16  2  0  0  0  0
  4 10  1  0  0  0  0
  4 17  2  0  0  0  0
  5  7  1  0  0  0  0
  5 18  1  0  0  0  0
  5 25  1  0  0  0  0
  6 13  1  0  0  0  0
  6 40  1  0  0  0  0
  6 41  1  0  0  0  0
  7 21  2  0  0  0  0
  8 22  1  0  0  0  0
  8 27  1  0  0  0  0
  8 44  1  0  0  0  0
  9 26  1  0  0  0  0
  9 27  1  0  0  0  0
  9 48  1  0  0  0  0
 10 11  2  0  0  0  0
 11 14  1  0  0  0  0
 11 16  1  0  0  0  0
 12 13  2  0  0  0  0
 12 15  1  0  0  0  0
 12 17  1  0  0  0  0
 14 18  2  0  0  0  0
 14 21  1  0  0  0  0
 15 19  2  0  0  0  0
 15 20  1  0  0  0  0
 16 34  1  0  0  0  0
 17 35  1  0  0  0  0
 18 36  1  0  0  0  0
 19 23  1  0  0  0  0
 19 37  1  0  0  0  0
 20 24  2  0  0  0  0
 20 38  1  0  0  0  0
 21 39  1  0  0  0  0
 22 23  2  0  0  0  0
 22 24  1  0  0  0  0
 23 42  1  0  0  0  0
 24 43  1  0  0  0  0
 25 45  1  0  0  0  0
 25 46  1  0  0  0  0
 25 47  1  0  0  0  0
 26 29  1  0  0  0  0
 26 30  2  0  0  0  0
 28 29  2  0  0  0  0
 28 31  1  0  0  0  0
 28 33  1  0  0  0  0
 29 49  1  0  0  0  0
 30 32  1  0  0  0  0
 30 50  1  0  0  0  0
 31 32  2  0  0  0  0
 31 51  1  0  0  0  0
 32 52  1  0  0  0  0
 33 53  1  0  0  0  0
 33 54  1  0  0  0  0
 33 55  1  0  0  0  0
M  END
> <PUBCHEM_COMPOUND_CID>
24894620

> <PUBCHEM_CONFORMER_RMSD>
0.8

> <PUBCHEM_CONFORMER_DIVERSEORDER>
1
30
22
8
31
23
12
10
26
42
33
9
17
32
25
52
6
21
36
56
35
29
4
18
2
24
7
27
57
20
58
14
44
16
51
45
50
28
34
61
55
3
37
47
39
19
49
15
40
11
60
54
46
43
13
59
41
53
48
38
5

> <PUBCHEM_MMFF94_PARTIAL_CHARGES>
47
1 -0.57
10 -0.03
12 -0.01
13 0.07
15 0.03
16 0.14
17 0.38
18 -0.3
19 -0.15
2 0.6
20 -0.15
21 0.14
22 0.12
23 -0.15
24 -0.15
25 0.26
26 0.12
27 0.69
28 -0.14
29 -0.15
3 -0.71
30 -0.15
31 -0.15
32 -0.15
33 0.14
34 0.15
35 0.06
36 0.15
37 0.15
38 0.15
39 0.15
4 -0.58
40 0.4
41 0.4
42 0.15
43 0.15
44 0.37
48 0.37
49 0.15
5 0.31
50 0.15
51 0.15
52 0.15
6 -0.9
7 -0.71
8 -0.55
9 -0.55

> <PUBCHEM_EFFECTIVE_ROTOR_COUNT>
6

> <PUBCHEM_PHARMACOPHORE_FEATURES>
13
1 1 acceptor
1 3 acceptor
1 4 acceptor
1 6 cation
1 6 donor
1 7 acceptor
1 8 donor
1 9 donor
5 2 3 10 11 16 rings
5 5 7 14 18 21 rings
6 15 19 20 22 23 24 rings
6 2 4 10 12 13 17 rings
6 26 28 29 30 31 32 rings

> <PUBCHEM_HEAVY_ATOM_COUNT>
33

> <PUBCHEM_ATOM_DEF_STEREO_COUNT>
0

> <PUBCHEM_ATOM_UDEF_STEREO_COUNT>
0

> <PUBCHEM_BOND_DEF_STEREO_COUNT>
0

> <PUBCHEM_BOND_UDEF_STEREO_COUNT>
0

> <PUBCHEM_ISOTOPIC_ATOM_COUNT>
0

> <PUBCHEM_COMPONENT_COUNT>
1

> <PUBCHEM_CACTVS_TAUTO_COUNT>
15

> <PUBCHEM_CONFORMER_ID>
017BDC9C00000001

> <PUBCHEM_MMFF94_ENERGY>
94.4419

> <PUBCHEM_FEATURE_SELFOVERLAP>
66.15

> <PUBCHEM_SHAPE_FINGERPRINT>
10076449 9 17240199932545501172
10100884 174 18338795732141425747
10162869 55 17749391482142575894
10190206 1 13190328051355027775
10299344 5 18334577919937578448
10533779 47 16128383641117947942
106641 1 18273494577173636492
11135609 99 18337674234480447087
11181472 205 9007068976215394878
11456790 92 16559033813294933539
12013929 94 18341897407192622194
12089408 11 18334296440571000496
12236239 1 18334298673896309981
12498461 61 18342734122366905198
12539745 222 18130508552468112513
12592606 108 18260547835834753718
12741549 16 17060340730275494729
12838862 33 15502373448737474008
13974486 27 17552651248984844383
13974486 7 17771616031241327183
14040222 383 18342174475380342090
14202775 3 18271813389715215190
14251764 18 18260832571203358008
14251764 46 18410576184174713199
14918687 75 18411134771153732942
150020 25 13623535662404683678
15198563 99 15068897508930832598
15392192 104 18273497858871841294
15419008 47 16845002426184936200
15461852 350 18413111653762079688
15510794 2 17846224328539437558
155225 1 9799698099759698511
15604295 49 8430305819085978158
15690457 1 18260828194394280538
15728490 51 18412824685527803599
16120349 18 17676492770510837540
17686467 74 18272645762027968360
1818759 1 18410856564394238670
18335252 98 17846221034193824806
20105231 36 18130512951590569102
21095123 145 17704352177879143116
21130935 74 18127129676707143274
21267235 1 18412828010486449321
21315763 28 18410856572593776437
21360443 89 18412258462782694915
21362267 20 18343018904173743134
21792961 116 15213295305511573852
232437 2 18409731759925310126
23569917 315 18187933914894907523
23576562 1 14780125206505911439
249057 3 13190350071362112038
3092352 35 18409450272797186966
3178227 256 15841550782356018746
335352 9 17822015324457922198
335507 130 17917710206300124980
3986486 107 15285347428642310735
4339292 15 17989198275275004623
44389302 135 18339356354491514010
44802255 64 13839980033097609473
4760202 70 18114188558118644620
54039377 194 18335700576938767791
57303763 39 18200312251518421870
58083652 198 16081380652765039036
59682541 35 17418091018700135662
636775 8 18411420648614658351
6691757 9 18131358509474357403
67123 10 18410576189192386476
9663363 56 16988562391269786401
9953998 17 15410890782333524413
9962374 69 18260264179252092180

> <PUBCHEM_SHAPE_MULTIPOLES>
633.41
38.36
2.39
0.96
44.48
0.6
0.01
24.36
-0.9
-5.78
-0.05
0.76
-0.04
-3.45

> <PUBCHEM_SHAPE_SELFOVERLAP>
1405.664

> <PUBCHEM_SHAPE_VOLUME>
339.4

> <PUBCHEM_COORDINATE_TYPE>
2
5
10

$$$$
