24905189
  -OEChem-10052115153D

 46 49  0     0  0  0  0  0  0999 V2000
    4.2597    0.6968   -1.9248 O   0  0  0  0  0  0  0  0  0  0  0  0
    5.5178    0.5694    0.5501 O   0  0  0  0  0  0  0  0  0  0  0  0
   -2.0605    0.7327    0.1586 N   0  0  0  0  0  0  0  0  0  0  0  0
   -0.8085    1.2136    0.2724 N   0  0  0  0  0  0  0  0  0  0  0  0
   -3.2150   -1.3780   -0.1138 N   0  0  0  0  0  0  0  0  0  0  0  0
   -1.6563   -3.2515   -0.2205 N   0  0  0  0  0  0  0  0  0  0  0  0
    0.7092   -2.9716   -0.0674 N   0  0  0  0  0  0  0  0  0  0  0  0
   -3.2322    1.6881    0.1935 C   0  0  0  0  0  0  0  0  0  0  0  0
   -4.2328    1.4324    1.3398 C   0  0  0  0  0  0  0  0  0  0  0  0
   -4.0639    1.6491   -1.1012 C   0  0  0  0  0  0  0  0  0  0  0  0
   -5.5597    1.1018    0.6659 C   0  0  0  0  0  0  0  0  0  0  0  0
   -5.4987    1.8658   -0.6450 C   0  0  0  0  0  0  0  0  0  0  0  0
   -2.1134   -0.6224    0.0197 C   0  0  0  0  0  0  0  0  0  0  0  0
   -0.8009   -1.0604    0.0443 C   0  0  0  0  0  0  0  0  0  0  0  0
   -0.0460    0.1168    0.2021 C   0  0  0  0  0  0  0  0  0  0  0  0
    1.3877    0.2344    0.2887 C   0  0  0  0  0  0  0  0  0  0  0  0
   -0.5886   -2.4292   -0.0820 C   0  0  0  0  0  0  0  0  0  0  0  0
   -2.8856   -2.6828   -0.2277 C   0  0  0  0  0  0  0  0  0  0  0  0
    2.1440    0.4112   -0.8699 C   0  0  0  0  0  0  0  0  0  0  0  0
    2.0191    0.1706    1.5308 C   0  0  0  0  0  0  0  0  0  0  0  0
    3.5318    0.5242   -0.7863 C   0  0  0  0  0  0  0  0  0  0  0  0
    3.4069    0.2835    1.6143 C   0  0  0  0  0  0  0  0  0  0  0  0
    4.1632    0.4603    0.4557 C   0  0  0  0  0  0  0  0  0  0  0  0
    3.5379    0.7516   -3.1537 C   0  0  0  0  0  0  0  0  0  0  0  0
    6.0848    0.4936    1.8566 C   0  0  0  0  0  0  0  0  0  0  0  0
   -2.7813    2.6809    0.3215 H   0  0  0  0  0  0  0  0  0  0  0  0
   -4.3454    2.3525    1.9265 H   0  0  0  0  0  0  0  0  0  0  0  0
   -3.9203    0.6425    2.0298 H   0  0  0  0  0  0  0  0  0  0  0  0
   -3.9807    0.6903   -1.6239 H   0  0  0  0  0  0  0  0  0  0  0  0
   -3.7451    2.4258   -1.8043 H   0  0  0  0  0  0  0  0  0  0  0  0
   -6.4177    1.3940    1.2783 H   0  0  0  0  0  0  0  0  0  0  0  0
   -5.6307    0.0250    0.4746 H   0  0  0  0  0  0  0  0  0  0  0  0
   -6.2262    1.5005   -1.3751 H   0  0  0  0  0  0  0  0  0  0  0  0
   -5.6869    2.9324   -0.4745 H   0  0  0  0  0  0  0  0  0  0  0  0
   -3.7179   -3.3693   -0.3402 H   0  0  0  0  0  0  0  0  0  0  0  0
    1.6008    0.4530   -1.8089 H   0  0  0  0  0  0  0  0  0  0  0  0
    1.4427    0.0323    2.4428 H   0  0  0  0  0  0  0  0  0  0  0  0
    1.5236   -2.3842    0.0350 H   0  0  0  0  0  0  0  0  0  0  0  0
    0.8188   -3.9725   -0.1612 H   0  0  0  0  0  0  0  0  0  0  0  0
    3.8287    0.2244    2.6117 H   0  0  0  0  0  0  0  0  0  0  0  0
    4.2733    0.8923   -3.9527 H   0  0  0  0  0  0  0  0  0  0  0  0
    2.8636    1.6142   -3.1881 H   0  0  0  0  0  0  0  0  0  0  0  0
    3.0212   -0.1917   -3.3611 H   0  0  0  0  0  0  0  0  0  0  0  0
    7.1689    0.5989    1.7440 H   0  0  0  0  0  0  0  0  0  0  0  0
    5.9067   -0.4839    2.3177 H   0  0  0  0  0  0  0  0  0  0  0  0
    5.7494    1.3213    2.4907 H   0  0  0  0  0  0  0  0  0  0  0  0
  1 21  1  0  0  0  0
  1 24  1  0  0  0  0
  2 23  1  0  0  0  0
  2 25  1  0  0  0  0
  3  4  1  0  0  0  0
  3  8  1  0  0  0  0
  3 13  1  0  0  0  0
  4 15  2  0  0  0  0
  5 13  2  0  0  0  0
  5 18  1  0  0  0  0
  6 17  1  0  0  0  0
  6 18  2  0  0  0  0
  7 17  1  0  0  0  0
  7 38  1  0  0  0  0
  7 39  1  0  0  0  0
  8  9  1  0  0  0  0
  8 10  1  0  0  0  0
  8 26  1  0  0  0  0
  9 11  1  0  0  0  0
  9 27  1  0  0  0  0
  9 28  1  0  0  0  0
 10 12  1  0  0  0  0
 10 29  1  0  0  0  0
 10 30  1  0  0  0  0
 11 12  1  0  0  0  0
 11 31  1  0  0  0  0
 11 32  1  0  0  0  0
 12 33  1  0  0  0  0
 12 34  1  0  0  0  0
 13 14  1  0  0  0  0
 14 15  1  0  0  0  0
 14 17  2  0  0  0  0
 15 16  1  0  0  0  0
 16 19  2  0  0  0  0
 16 20  1  0  0  0  0
 18 35  1  0  0  0  0
 19 21  1  0  0  0  0
 19 36  1  0  0  0  0
 20 22  2  0  0  0  0
 20 37  1  0  0  0  0
 21 23  2  0  0  0  0
 22 23  1  0  0  0  0
 22 40  1  0  0  0  0
 24 41  1  0  0  0  0
 24 42  1  0  0  0  0
 24 43  1  0  0  0  0
 25 44  1  0  0  0  0
 25 45  1  0  0  0  0
 25 46  1  0  0  0  0
M  END
> <PUBCHEM_COMPOUND_CID>
24905189

> <PUBCHEM_CONFORMER_RMSD>
0.8

> <PUBCHEM_CONFORMER_DIVERSEORDER>
3
8
14
5
11
1
6
13
9
12
2
4
7
10

> <PUBCHEM_MMFF94_PARTIAL_CHARGES>
26
1 -0.36
13 0.11
15 0.23
16 0.05
17 0.41
18 0.47
19 -0.15
2 -0.36
20 -0.15
21 0.08
22 -0.15
23 0.08
24 0.28
25 0.28
3 0.31
35 0.15
36 0.15
37 0.15
38 0.4
39 0.4
4 -0.71
40 0.15
5 -0.57
6 -0.62
7 -0.9
8 0.26

> <PUBCHEM_EFFECTIVE_ROTOR_COUNT>
5

> <PUBCHEM_PHARMACOPHORE_FEATURES>
11
1 1 acceptor
1 2 acceptor
1 4 acceptor
1 7 cation
1 7 donor
3 3 5 13 cation
3 5 6 18 cation
5 3 4 13 14 15 rings
5 8 9 10 11 12 rings
6 16 19 20 21 22 23 rings
6 5 6 13 14 17 18 rings

> <PUBCHEM_HEAVY_ATOM_COUNT>
25

> <PUBCHEM_ATOM_DEF_STEREO_COUNT>
0

> <PUBCHEM_ATOM_UDEF_STEREO_COUNT>
0

> <PUBCHEM_BOND_DEF_STEREO_COUNT>
0

> <PUBCHEM_BOND_UDEF_STEREO_COUNT>
0

> <PUBCHEM_ISOTOPIC_ATOM_COUNT>
0

> <PUBCHEM_COMPONENT_COUNT>
1

> <PUBCHEM_CACTVS_TAUTO_COUNT>
5

> <PUBCHEM_CONFORMER_ID>
017C05E500000003

> <PUBCHEM_MMFF94_ENERGY>
82.1837

> <PUBCHEM_FEATURE_SELFOVERLAP>
56.105

> <PUBCHEM_SHAPE_FINGERPRINT>
10411042 1 17763454420087683743
105312 117 18337383860378803045
10906281 52 17632582686343334856
11049842 53 18336282162729088470
11796584 16 18343588430707583110
12236239 1 17894345596915457944
12403259 118 17531246119701673005
12616971 3 17458061582100461020
12788726 201 17826525640739690315
13052359 8 18409728491423640427
13140716 1 18340766061214793513
13726171 33 18050034325948114100
15021287 119 17168136837045006204
15131766 46 16082795843791998567
16752209 62 18338514261000135659
173720 79 18187362121439370439
17980427 23 18042398192513691284
204376 136 18410291368451989657
20554085 129 17915434169642967387
20600515 1 18272937137036275256
21033648 29 17345736616963422696
21236236 1 18342448288261542051
21285901 2 16988284171087521592
22122407 14 16805615728780864013
22149856 69 18266197050123710401
22182313 1 17631747061452714142
22224240 67 18342461427093995769
23366157 5 17756433664681406451
23402539 116 18272076223762928296
23557571 272 18059857328338356304
23559900 14 18130238094778172604
25147074 1 17822573923145249068
4340502 62 18342457002153937195
5104073 3 18263072370614908936
5385378 56 18268716004854603859
57527295 17 16987457312203559846
59755656 520 18272643528871067303
633830 44 17775284928873279305
9862522 239 18114732751416919805

> <PUBCHEM_SHAPE_MULTIPOLES>
477.84
12.22
2.6
1.75
2.91
2.94
1.04
-7.74
-1.69
-3.41
0.34
2.98
-0.82
-0.36

> <PUBCHEM_SHAPE_SELFOVERLAP>
1046.828

> <PUBCHEM_SHAPE_VOLUME>
259.9

> <PUBCHEM_COORDINATE_TYPE>
2
5
10

$$$$
