23400934
  -OEChem-10062122033D

 45 47  0     1  0  0  0  0  0999 V2000
    2.0305   -2.2113   -0.2936 S   0  0  0  0  0  0  0  0  0  0  0  0
   -5.1350    1.1174    0.4662 O   0  0  0  0  0  0  0  0  0  0  0  0
    5.5973   -0.7212    0.0899 O   0  0  0  0  0  0  0  0  0  0  0  0
   -2.7048   -0.5712   -0.0525 N   0  0  0  0  0  0  0  0  0  0  0  0
   -0.4893   -1.3621   -0.1709 N   0  0  0  0  0  0  0  0  0  0  0  0
    3.5532    1.2774    0.4362 N   0  0  0  0  0  0  0  0  0  0  0  0
    4.8884   -2.8533   -0.3685 N   0  0  0  0  0  0  0  0  0  0  0  0
   -4.9852    0.1957   -0.6135 C   0  0  1  0  0  0  0  0  0  0  0  0
   -3.5169    0.1469   -1.0445 C   0  0  0  0  0  0  0  0  0  0  0  0
   -5.5231   -1.1736   -0.2058 C   0  0  0  0  0  0  0  0  0  0  0  0
   -4.6179   -1.8448    0.8231 C   0  0  0  0  0  0  0  0  0  0  0  0
   -3.1739   -1.9081    0.3344 C   0  0  0  0  0  0  0  0  0  0  0  0
   -1.3292   -0.3227    0.0220 C   0  0  0  0  0  0  0  0  0  0  0  0
    0.4050    1.2718    0.3760 C   0  0  0  0  0  0  0  0  0  0  0  0
   -0.9530    0.9812    0.2915 C   0  0  0  0  0  0  0  0  0  0  0  0
    1.3354    0.2302    0.1841 C   0  0  0  0  0  0  0  0  0  0  0  0
    0.8020    2.6855    0.6666 C   0  0  0  0  0  0  0  0  0  0  0  0
    0.8164   -1.0330   -0.0799 C   0  0  0  0  0  0  0  0  0  0  0  0
    2.7667    0.1971    0.2047 C   0  0  0  0  0  0  0  0  0  0  0  0
    0.9816    3.5082   -0.6145 C   0  0  0  0  0  0  0  0  0  0  0  0
    3.2704   -1.0618   -0.0388 C   0  0  0  0  0  0  0  0  0  0  0  0
    1.3525    4.9511   -0.3107 C   0  0  0  0  0  0  0  0  0  0  0  0
    4.6290   -1.4997   -0.1014 C   0  0  0  0  0  0  0  0  0  0  0  0
   -5.5829    0.5886   -1.4440 H   0  0  0  0  0  0  0  0  0  0  0  0
   -3.4295   -0.3686   -2.0090 H   0  0  0  0  0  0  0  0  0  0  0  0
   -3.1610    1.1735   -1.1870 H   0  0  0  0  0  0  0  0  0  0  0  0
   -5.5951   -1.8145   -1.0930 H   0  0  0  0  0  0  0  0  0  0  0  0
   -6.5305   -1.0785    0.2155 H   0  0  0  0  0  0  0  0  0  0  0  0
   -4.6604   -1.2838    1.7652 H   0  0  0  0  0  0  0  0  0  0  0  0
   -4.9825   -2.8560    1.0357 H   0  0  0  0  0  0  0  0  0  0  0  0
   -2.5622   -2.3175    1.1484 H   0  0  0  0  0  0  0  0  0  0  0  0
   -3.0906   -2.5909   -0.5202 H   0  0  0  0  0  0  0  0  0  0  0  0
   -1.6901    1.7628    0.4522 H   0  0  0  0  0  0  0  0  0  0  0  0
    0.0012    3.1544    1.2575 H   0  0  0  0  0  0  0  0  0  0  0  0
    1.6613    2.7453    1.3373 H   0  0  0  0  0  0  0  0  0  0  0  0
   -6.0793    1.1495    0.6960 H   0  0  0  0  0  0  0  0  0  0  0  0
    1.7605    3.0635   -1.2452 H   0  0  0  0  0  0  0  0  0  0  0  0
    0.0560    3.4950   -1.2031 H   0  0  0  0  0  0  0  0  0  0  0  0
    0.5739    5.4393    0.2839 H   0  0  0  0  0  0  0  0  0  0  0  0
    2.2942    5.0039    0.2449 H   0  0  0  0  0  0  0  0  0  0  0  0
    1.4742    5.5154   -1.2406 H   0  0  0  0  0  0  0  0  0  0  0  0
    3.2336    2.2351    0.4694 H   0  0  0  0  0  0  0  0  0  0  0  0
    4.5653    1.1974    0.4822 H   0  0  0  0  0  0  0  0  0  0  0  0
    4.1429   -3.5245   -0.5230 H   0  0  0  0  0  0  0  0  0  0  0  0
    5.8401   -3.2016   -0.4145 H   0  0  0  0  0  0  0  0  0  0  0  0
  1 18  1  0  0  0  0
  1 21  1  0  0  0  0
  2  8  1  0  0  0  0
  2 36  1  0  0  0  0
  3 23  2  0  0  0  0
  4  9  1  0  0  0  0
  4 12  1  0  0  0  0
  4 13  1  0  0  0  0
  5 13  2  0  0  0  0
  5 18  1  0  0  0  0
  6 19  1  0  0  0  0
  6 42  1  0  0  0  0
  6 43  1  0  0  0  0
  7 23  1  0  0  0  0
  7 44  1  0  0  0  0
  7 45  1  0  0  0  0
  8  9  1  0  0  0  0
  8 10  1  0  0  0  0
  8 24  1  0  0  0  0
  9 25  1  0  0  0  0
  9 26  1  0  0  0  0
 10 11  1  0  0  0  0
 10 27  1  0  0  0  0
 10 28  1  0  0  0  0
 11 12  1  0  0  0  0
 11 29  1  0  0  0  0
 11 30  1  0  0  0  0
 12 31  1  0  0  0  0
 12 32  1  0  0  0  0
 13 15  1  0  0  0  0
 14 15  2  0  0  0  0
 14 16  1  0  0  0  0
 14 17  1  0  0  0  0
 15 33  1  0  0  0  0
 16 18  2  0  0  0  0
 16 19  1  0  0  0  0
 17 20  1  0  0  0  0
 17 34  1  0  0  0  0
 17 35  1  0  0  0  0
 19 21  2  0  0  0  0
 20 22  1  0  0  0  0
 20 37  1  0  0  0  0
 20 38  1  0  0  0  0
 21 23  1  0  0  0  0
 22 39  1  0  0  0  0
 22 40  1  0  0  0  0
 22 41  1  0  0  0  0
M  END
> <PUBCHEM_COMPOUND_CID>
23400934

> <PUBCHEM_CONFORMER_RMSD>
0.8

> <PUBCHEM_CONFORMER_DIVERSEORDER>
1
33
39
9
20
17
37
35
24
6
18
27
40
19
13
30
10
32
7
26
15
23
36
29
3
28
25
8
14
38
31
11
34
22
12
4
21
16
5
2

> <PUBCHEM_MMFF94_PARTIAL_CHARGES>
24
1 -0.08
12 0.37
13 0.41
14 -0.14
15 -0.15
17 0.14
18 0.3
19 0.08
2 -0.68
21 -0.05
23 0.71
3 -0.57
33 0.15
36 0.4
4 -0.84
42 0.4
43 0.4
44 0.37
45 0.37
5 -0.57
6 -0.88
7 -0.8
8 0.28
9 0.37

> <PUBCHEM_EFFECTIVE_ROTOR_COUNT>
5.2

> <PUBCHEM_PHARMACOPHORE_FEATURES>
11
1 2 acceptor
1 2 donor
1 22 hydrophobe
1 3 acceptor
1 6 cation
1 6 donor
1 7 donor
3 4 5 13 cation
5 1 16 18 19 21 rings
6 4 8 9 10 11 12 rings
6 5 13 14 15 16 18 rings

> <PUBCHEM_HEAVY_ATOM_COUNT>
23

> <PUBCHEM_ATOM_DEF_STEREO_COUNT>
0

> <PUBCHEM_ATOM_UDEF_STEREO_COUNT>
1

> <PUBCHEM_BOND_DEF_STEREO_COUNT>
0

> <PUBCHEM_BOND_UDEF_STEREO_COUNT>
0

> <PUBCHEM_ISOTOPIC_ATOM_COUNT>
0

> <PUBCHEM_COMPONENT_COUNT>
1

> <PUBCHEM_CACTVS_TAUTO_COUNT>
5

> <PUBCHEM_CONFORMER_ID>
016511E600000001

> <PUBCHEM_MMFF94_ENERGY>
59.6691

> <PUBCHEM_FEATURE_SELFOVERLAP>
55.897

> <PUBCHEM_SHAPE_FINGERPRINT>
10411042 1 18338798918958919890
10906281 52 18340506485959547242
11045515 52 18188210896876429244
12166972 35 18272932752126938345
12236239 1 17346876741396247591
12516196 113 18410853248510421054
12788726 201 17971751073618530522
13004483 165 18267011770268718714
13134695 92 17846207899561776649
13140716 1 17765710617751831248
13590594 115 18337399240525451377
138480 1 18410575123582100388
13862211 1 18342170046926220118
13955234 65 18122912185508388841
14341114 176 18410859893304674715
14508225 48 18339638928588955340
14866123 147 17836932196036158739
15042514 8 18123472678909146120
15081414 286 18411417341004582700
15196674 1 18412262852439751027
15664445 248 18270700730801604076
15788980 27 17917706899017297903
15927050 60 17692816299997613212
1601671 61 18411418422977346324
16087824 20 18050289172613191381
167882 2 18192433197816011180
17492 89 18194682794659789043
17844677 252 18412550933445187721
17980427 23 17561091271926333673
1813 80 18201733833419976172
18785283 64 18118119409917383596
200 152 17989483000740429339
20286276 3 18192717963048725035
20645477 70 18272087192851264559
20739085 24 18342187660702535040
21033648 29 17703208655890439947
21049683 271 18188782763340206276
21065198 57 18337953510534018291
21267235 1 18341900670756162278
21279426 13 18337952281804028679
21478907 32 18194399983720752914
21641784 216 18116732733151104724
21709351 56 18411691111220914839
221357 26 18409157806307634453
221490 88 18263931110333434067
22182313 1 18266996454341780428
23175994 123 18409167697242894015
23366157 5 17972029503352781288
23402539 116 18272646801367433327
23557571 272 18198345044289036284
23559900 14 18337101354630845203
23566358 27 18195241350644830535
283562 15 18192995924789387722
3004659 81 18186522077719213486
314173 41 18409167709837918282
335352 9 18411699847084096445
3421961 26 18341047501583488440
4214541 1 18410855460909130435
458136 41 17906180907480544337
5104073 3 18412825793892993867
6287921 2 17898572244314562341
6443956 14 18409731772398872340
7164475 11 18193280685495077694
7364860 26 18266458900160559373
7495541 125 18261115213741396567
77188 2 18410856547298875868
8863177 126 18042699475547820819
9709674 26 18263926716882778507
9971528 1 18341604936482507408
9981440 41 17473818906144370024

> <PUBCHEM_SHAPE_MULTIPOLES>
445.52
11.09
4.1
0.79
6.56
5.87
0.03
-7.37
0.3
-4.03
0.4
0.36
0.08
0.58

> <PUBCHEM_SHAPE_SELFOVERLAP>
940.133

> <PUBCHEM_SHAPE_VOLUME>
253.3

> <PUBCHEM_COORDINATE_TYPE>
2
5
10

$$$$
