49830303
  -OEChem-10052115183D

 42 44  0     0  0  0  0  0  0999 V2000
    0.5673   -4.9858   -0.6419 Cl  0  0  0  0  0  0  0  0  0  0  0  0
    2.5251   -0.5609    0.1994 N   0  0  0  0  0  0  0  0  0  0  0  0
    4.1487    1.7291   -1.9824 N   0  0  0  0  0  0  0  0  0  0  0  0
    0.2029   -0.6387    0.2006 N   0  0  0  0  0  0  0  0  0  0  0  0
   -4.3030   -0.3937    0.6955 N   0  0  0  0  0  0  0  0  0  0  0  0
    1.5199   -2.6190   -0.1893 N   0  0  0  0  0  0  0  0  0  0  0  0
   -4.5720    1.9265    0.1060 N   0  0  0  0  0  0  0  0  0  0  0  0
    3.9790    1.4277    0.5222 C   0  0  0  0  0  0  0  0  0  0  0  0
    2.5391    0.8585    0.4706 C   0  0  0  0  0  0  0  0  0  0  0  0
    4.7692    1.1612   -0.7887 C   0  0  0  0  0  0  0  0  0  0  0  0
    4.7570    0.7886    1.6925 C   0  0  0  0  0  0  0  0  0  0  0  0
    3.8859    2.9446    0.7932 C   0  0  0  0  0  0  0  0  0  0  0  0
    1.3651   -1.3056    0.0651 C   0  0  0  0  0  0  0  0  0  0  0  0
   -2.1548   -0.7019    0.2043 C   0  0  0  0  0  0  0  0  0  0  0  0
   -0.9064   -1.3940    0.0616 C   0  0  0  0  0  0  0  0  0  0  0  0
   -2.4897    0.6464   -0.0903 C   0  0  0  0  0  0  0  0  0  0  0  0
   -3.8354    0.8059    0.2271 C   0  0  0  0  0  0  0  0  0  0  0  0
   -3.2899   -1.3172    0.6864 C   0  0  0  0  0  0  0  0  0  0  0  0
   -0.8836   -2.7488   -0.2000 C   0  0  0  0  0  0  0  0  0  0  0  0
   -1.8072    1.7659   -0.5934 C   0  0  0  0  0  0  0  0  0  0  0  0
    0.3701   -3.3135   -0.3166 C   0  0  0  0  0  0  0  0  0  0  0  0
   -2.5227    2.9530   -0.7390 C   0  0  0  0  0  0  0  0  0  0  0  0
   -3.8646    2.9718   -0.3829 C   0  0  0  0  0  0  0  0  0  0  0  0
    2.0372    1.0500    1.4281 H   0  0  0  0  0  0  0  0  0  0  0  0
    1.9633    1.3837   -0.3021 H   0  0  0  0  0  0  0  0  0  0  0  0
    5.7795    1.5798   -0.6980 H   0  0  0  0  0  0  0  0  0  0  0  0
    4.8998    0.0852   -0.9482 H   0  0  0  0  0  0  0  0  0  0  0  0
    4.2239    0.9208    2.6409 H   0  0  0  0  0  0  0  0  0  0  0  0
    5.7464    1.2475    1.8029 H   0  0  0  0  0  0  0  0  0  0  0  0
    4.9119   -0.2851    1.5439 H   0  0  0  0  0  0  0  0  0  0  0  0
    3.4273    3.1417    1.7692 H   0  0  0  0  0  0  0  0  0  0  0  0
    4.8789    3.4079    0.7947 H   0  0  0  0  0  0  0  0  0  0  0  0
    3.2769    3.4571    0.0409 H   0  0  0  0  0  0  0  0  0  0  0  0
    3.3955   -1.0714    0.1129 H   0  0  0  0  0  0  0  0  0  0  0  0
    4.1281    2.7451   -1.9123 H   0  0  0  0  0  0  0  0  0  0  0  0
    4.7259    1.5156   -2.7950 H   0  0  0  0  0  0  0  0  0  0  0  0
   -3.4833   -2.3228    1.0351 H   0  0  0  0  0  0  0  0  0  0  0  0
   -5.2495   -0.5692    1.0029 H   0  0  0  0  0  0  0  0  0  0  0  0
   -1.7777   -3.3482   -0.3244 H   0  0  0  0  0  0  0  0  0  0  0  0
   -0.7584    1.7241   -0.8681 H   0  0  0  0  0  0  0  0  0  0  0  0
   -2.0395    3.8444   -1.1243 H   0  0  0  0  0  0  0  0  0  0  0  0
   -4.4378    3.8890   -0.4903 H   0  0  0  0  0  0  0  0  0  0  0  0
  1 21  1  0  0  0  0
  2  9  1  0  0  0  0
  2 13  1  0  0  0  0
  2 34  1  0  0  0  0
  3 10  1  0  0  0  0
  3 35  1  0  0  0  0
  3 36  1  0  0  0  0
  4 13  2  0  0  0  0
  4 15  1  0  0  0  0
  5 17  1  0  0  0  0
  5 18  1  0  0  0  0
  5 38  1  0  0  0  0
  6 13  1  0  0  0  0
  6 21  2  0  0  0  0
  7 17  1  0  0  0  0
  7 23  2  0  0  0  0
  8  9  1  0  0  0  0
  8 10  1  0  0  0  0
  8 11  1  0  0  0  0
  8 12  1  0  0  0  0
  9 24  1  0  0  0  0
  9 25  1  0  0  0  0
 10 26  1  0  0  0  0
 10 27  1  0  0  0  0
 11 28  1  0  0  0  0
 11 29  1  0  0  0  0
 11 30  1  0  0  0  0
 12 31  1  0  0  0  0
 12 32  1  0  0  0  0
 12 33  1  0  0  0  0
 14 15  1  0  0  0  0
 14 16  1  0  0  0  0
 14 18  2  0  0  0  0
 15 19  2  0  0  0  0
 16 17  2  0  0  0  0
 16 20  1  0  0  0  0
 18 37  1  0  0  0  0
 19 21  1  0  0  0  0
 19 39  1  0  0  0  0
 20 22  2  0  0  0  0
 20 40  1  0  0  0  0
 22 23  1  0  0  0  0
 22 41  1  0  0  0  0
 23 42  1  0  0  0  0
M  END
> <PUBCHEM_COMPOUND_CID>
49830303

> <PUBCHEM_CONFORMER_RMSD>
0.8

> <PUBCHEM_CONFORMER_DIVERSEORDER>
1
28
130
137
46
37
45
98
128
104
108
118
112
82
22
24
42
117
48
116
53
66
77
90
27
136
35
76
69
120
109
111
135
94
19
55
127
47
67
105
89
58
107
134
84
12
95
32
20
60
59
78
131
103
74
113
85
23
119
68
92
65
17
72
115
83
49
124
126
125
102
79
138
6
132
39
100
73
70
114
121
40
10
62
36
97
7
110
99
8
29
34
123
26
80
13
30
57
5
25
81
9
86
106
33
64
88
3
44
38
52
11
133
56
96
54
51
4
63
50
129
43
75
31
61
14
18
2
15
91
87
21
16
41
101
122
93
71

> <PUBCHEM_MMFF94_PARTIAL_CHARGES>
28
1 -0.18
10 0.27
13 0.72
14 -0.05
15 0.36
17 0.11
18 -0.3
19 -0.15
2 -0.87
20 -0.15
21 0.49
22 -0.15
23 0.16
3 -0.99
34 0.4
35 0.36
36 0.36
37 0.15
38 0.27
39 0.15
4 -0.62
40 0.15
41 0.15
42 0.15
5 0.03
6 -0.62
7 -0.57
9 0.37

> <PUBCHEM_EFFECTIVE_ROTOR_COUNT>
5

> <PUBCHEM_PHARMACOPHORE_FEATURES>
12
1 2 donor
1 3 cation
1 3 donor
1 5 cation
1 5 donor
1 6 acceptor
1 7 acceptor
3 8 11 12 hydrophobe
4 2 4 6 13 cation
5 5 14 16 17 18 rings
6 4 6 13 15 19 21 rings
6 7 16 17 20 22 23 rings

> <PUBCHEM_HEAVY_ATOM_COUNT>
23

> <PUBCHEM_ATOM_DEF_STEREO_COUNT>
0

> <PUBCHEM_ATOM_UDEF_STEREO_COUNT>
0

> <PUBCHEM_BOND_DEF_STEREO_COUNT>
0

> <PUBCHEM_BOND_UDEF_STEREO_COUNT>
0

> <PUBCHEM_ISOTOPIC_ATOM_COUNT>
0

> <PUBCHEM_COMPONENT_COUNT>
1

> <PUBCHEM_CACTVS_TAUTO_COUNT>
16

> <PUBCHEM_CONFORMER_ID>
02F8599F00000001

> <PUBCHEM_MMFF94_ENERGY>
54.9825

> <PUBCHEM_FEATURE_SELFOVERLAP>
61.008

> <PUBCHEM_SHAPE_FINGERPRINT>
10165383 225 18200883962650674145
10411042 1 17186436288292470178
10608611 8 18120655730451106251
10670039 82 18261684752554549748
10871710 139 18268985569829188239
10906281 52 18187942694181554131
1100329 8 16828405035295152960
11552529 35 16735243857855647306
11833330 49 17619620719403604338
12107183 9 18337652171781671570
12173636 292 18339356482654171766
12363563 72 8574433157544270608
12403259 226 17469605110036131183
12596602 18 16515686701109679904
12788726 201 17755866673069177986
12925494 130 18123748660919033073
12978246 48 18334576892702630964
13140716 1 18191579757543238107
13590594 115 17044306263774291161
138480 1 17764023562876634282
14251757 5 18194981848874124620
14466204 15 18121772829964990426
14468879 13 18260836968775200521
14508225 48 17334763670558576494
14950920 106 17168412865955713528
15403338 16 16806144619257901857
18785283 64 18192150386866938698
20101258 96 17399241240414584130
21033648 29 18271516585424874496
21860390 5 17695056704540356646
23227448 37 18126283288222407620
23366157 5 18043814177936657011
23559900 14 18052249601290933203
3298306 158 18342738490237173996
350125 39 18337114462712900342
5104073 3 18190748540296808073
621550 34 18338811039493981003
6287921 2 18191034408460871541
7064713 232 18334293162846939244
7399639 24 18410581682440338291
7808743 9 18122343742893403136
9709674 26 18050005498586234327
9862522 239 18337092536598743208
9925002 15 17689721187180983167
9981440 41 18410284809610005659

> <PUBCHEM_SHAPE_MULTIPOLES>
445.31
9.71
5.11
1.07
4.55
5.19
0.13
-10.12
-1.11
-0.36
1.32
1.21
-0.44
0.83

> <PUBCHEM_SHAPE_SELFOVERLAP>
953.144

> <PUBCHEM_SHAPE_VOLUME>
249

> <PUBCHEM_COORDINATE_TYPE>
2
5
10

$$$$
