617753
  -OEChem-10052115193D

 29 31  0     0  0  0  0  0  0999 V2000
   -0.3558   -2.1453    0.0200 O   0  0  0  0  0  0  0  0  0  0  0  0
    4.7720    1.6865   -0.0838 O   0  0  0  0  0  0  0  0  0  0  0  0
   -0.8149    0.1720    0.0381 N   0  0  0  0  0  0  0  0  0  0  0  0
    0.0177    1.2695    0.0811 N   0  0  0  0  0  0  0  0  0  0  0  0
    2.4638    1.5980    0.0042 N   0  0  0  0  0  0  0  0  0  0  0  0
    1.4000   -0.4890    0.0453 C   0  0  0  0  0  0  0  0  0  0  0  0
    1.3181    0.8489    0.0568 C   0  0  0  0  0  0  0  0  0  0  0  0
   -0.0103   -0.9759    0.0292 C   0  0  0  0  0  0  0  0  0  0  0  0
    2.6499   -1.1936    0.0022 C   0  0  0  0  0  0  0  0  0  0  0  0
   -2.1951    0.1984    0.0090 C   0  0  0  0  0  0  0  0  0  0  0  0
    3.7822   -0.4662   -0.0362 C   0  0  0  0  0  0  0  0  0  0  0  0
    3.7316    1.0342   -0.0401 C   0  0  0  0  0  0  0  0  0  0  0  0
    2.6551   -2.6896    0.0038 C   0  0  0  0  0  0  0  0  0  0  0  0
   -2.9292   -0.9955   -0.0341 C   0  0  0  0  0  0  0  0  0  0  0  0
   -2.8845    1.4195    0.0227 C   0  0  0  0  0  0  0  0  0  0  0  0
   -4.3235   -0.9691   -0.0631 C   0  0  0  0  0  0  0  0  0  0  0  0
   -4.2788    1.4458   -0.0061 C   0  0  0  0  0  0  0  0  0  0  0  0
   -4.9983    0.2514   -0.0491 C   0  0  0  0  0  0  0  0  0  0  0  0
   -0.2469    2.1651   -0.3060 H   0  0  0  0  0  0  0  0  0  0  0  0
    2.3679    2.6088   -0.0005 H   0  0  0  0  0  0  0  0  0  0  0  0
    4.7637   -0.9265   -0.0692 H   0  0  0  0  0  0  0  0  0  0  0  0
    3.6735   -3.0928   -0.0172 H   0  0  0  0  0  0  0  0  0  0  0  0
    2.1308   -3.0798   -0.8749 H   0  0  0  0  0  0  0  0  0  0  0  0
    2.1685   -3.0779    0.9048 H   0  0  0  0  0  0  0  0  0  0  0  0
   -2.4913   -1.9832   -0.0499 H   0  0  0  0  0  0  0  0  0  0  0  0
   -2.3605    2.3705    0.0604 H   0  0  0  0  0  0  0  0  0  0  0  0
   -4.8852   -1.8982   -0.0970 H   0  0  0  0  0  0  0  0  0  0  0  0
   -4.8050    2.3959    0.0059 H   0  0  0  0  0  0  0  0  0  0  0  0
   -6.0839    0.2720   -0.0715 H   0  0  0  0  0  0  0  0  0  0  0  0
  1  8  2  0  0  0  0
  2 12  2  0  0  0  0
  3  4  1  0  0  0  0
  3  8  1  0  0  0  0
  3 10  1  0  0  0  0
  4  7  1  0  0  0  0
  4 19  1  0  0  0  0
  5  7  1  0  0  0  0
  5 12  1  0  0  0  0
  5 20  1  0  0  0  0
  6  7  2  0  0  0  0
  6  8  1  0  0  0  0
  6  9  1  0  0  0  0
  9 11  2  0  0  0  0
  9 13  1  0  0  0  0
 10 14  2  0  0  0  0
 10 15  1  0  0  0  0
 11 12  1  0  0  0  0
 11 21  1  0  0  0  0
 13 22  1  0  0  0  0
 13 23  1  0  0  0  0
 13 24  1  0  0  0  0
 14 16  1  0  0  0  0
 14 25  1  0  0  0  0
 15 17  2  0  0  0  0
 15 26  1  0  0  0  0
 16 18  2  0  0  0  0
 16 27  1  0  0  0  0
 17 18  1  0  0  0  0
 17 28  1  0  0  0  0
 18 29  1  0  0  0  0
M  END
> <PUBCHEM_COMPOUND_CID>
617753

> <PUBCHEM_CONFORMER_RMSD>
0.6

> <PUBCHEM_CONFORMER_DIVERSEORDER>
1
2

> <PUBCHEM_MMFF94_PARTIAL_CHARGES>
26
1 -0.57
10 0.12
11 -0.14
12 0.62
13 0.14
14 -0.15
15 -0.15
16 -0.15
17 -0.15
18 -0.15
19 0.4
2 -0.57
20 0.37
21 0.15
25 0.15
26 0.15
27 0.15
28 0.15
29 0.15
3 -0.16
4 -0.52
5 -0.54
6 0.01
7 0.21
8 0.62
9 -0.14

> <PUBCHEM_EFFECTIVE_ROTOR_COUNT>
1

> <PUBCHEM_PHARMACOPHORE_FEATURES>
7
1 1 acceptor
1 2 acceptor
1 4 donor
1 5 donor
5 3 4 6 7 8 rings
6 10 14 15 16 17 18 rings
6 5 6 7 9 11 12 rings

> <PUBCHEM_HEAVY_ATOM_COUNT>
18

> <PUBCHEM_ATOM_DEF_STEREO_COUNT>
0

> <PUBCHEM_ATOM_UDEF_STEREO_COUNT>
0

> <PUBCHEM_BOND_DEF_STEREO_COUNT>
0

> <PUBCHEM_BOND_UDEF_STEREO_COUNT>
0

> <PUBCHEM_ISOTOPIC_ATOM_COUNT>
0

> <PUBCHEM_COMPONENT_COUNT>
1

> <PUBCHEM_CACTVS_TAUTO_COUNT>
9

> <PUBCHEM_CONFORMER_ID>
00096D1900000001

> <PUBCHEM_MMFF94_ENERGY>
65.6201

> <PUBCHEM_FEATURE_SELFOVERLAP>
35.632

> <PUBCHEM_SHAPE_FINGERPRINT>
10014705 185 18260261924547470005
10411042 1 17617940231776457594
10608611 8 18408882902298804333
10616163 171 18340769359522953175
10967382 1 18410573972298217266
11471102 20 18411135831646469540
12107183 9 17692536611326416849
12236239 1 17917994971284970361
13167823 11 18342174449504646647
13380535 76 18335984272149702786
15196674 1 18410855443365075975
15375358 24 18260831518071337362
15442244 35 18195810660990915346
15536298 74 18341613689736431422
17492 89 18411982429947065711
17834072 33 18341891905038588975
18186145 218 18335701598407293470
200 152 18131062732836221469
20645477 70 18342739572358241462
21267235 1 18339651057059588726
221490 88 18409175380660292355
23402539 116 18343014531916835437
23402655 69 18343582945089658661
23463225 33 18339079289675218447
23559900 14 18269550529547845770
3071541 37 18335707139553525598
335352 9 18050567344199882255
33824 294 18408603652120499306
34934 24 18412821417194626822
3545911 37 18409731768177608565
4214541 1 18410855426285667425
474 4 17895479236269121268
4990 188 18060147530852058420
5104073 3 18409450246167053793
542803 24 17346884442393597449
543358 83 18340492140562771088
633830 44 18411134693369730407
69090 78 18412260666174842255
7364860 26 18341050727404744278
77779 3 18410856538571141485
8272917 22 18341616966722846318
9709674 26 18409454695458370075

> <PUBCHEM_SHAPE_MULTIPOLES>
343.75
9.64
2.17
0.59
3.98
0.68
0
-2.15
-0.27
-1.47
0
0.03
0.01
-0.07

> <PUBCHEM_SHAPE_SELFOVERLAP>
762.251

> <PUBCHEM_SHAPE_VOLUME>
185.1

> <PUBCHEM_COORDINATE_TYPE>
2
5
10

$$$$
