18516237
  -OEChem-10052115183D

 28 30  0     0  0  0  0  0  0999 V2000
   -3.4039    0.5992    0.0018 S   0  0  0  0  0  0  0  0  0  0  0  0
    5.0595   -1.8732   -0.0023 F   0  0  0  0  0  0  0  0  0  0  0  0
   -4.5751   -2.1253   -0.0126 O   0  0  0  0  0  0  0  0  0  0  0  0
   -0.5708    3.4545   -0.0026 N   0  0  0  0  0  0  0  0  0  0  0  0
   -2.6202   -3.3241    0.0053 N   0  0  0  0  0  0  0  0  0  0  0  0
   -0.8197    0.6668    0.0020 C   0  0  0  0  0  0  0  0  0  0  0  0
    0.4558    1.2632    0.0013 C   0  0  0  0  0  0  0  0  0  0  0  0
   -1.9385    1.5050    0.0005 C   0  0  0  0  0  0  0  0  0  0  0  0
    1.6475    0.4522    0.0004 C   0  0  0  0  0  0  0  0  0  0  0  0
   -1.2071   -0.7151    0.0042 C   0  0  0  0  0  0  0  0  0  0  0  0
   -2.5709   -0.8882    0.0038 C   0  0  0  0  0  0  0  0  0  0  0  0
    0.5080    2.6476   -0.0009 C   0  0  0  0  0  0  0  0  0  0  0  0
   -1.8003    2.8944   -0.0018 C   0  0  0  0  0  0  0  0  0  0  0  0
    2.2263    0.0616    1.2079 C   0  0  0  0  0  0  0  0  0  0  0  0
    2.2213    0.0570   -1.2081 C   0  0  0  0  0  0  0  0  0  0  0  0
    3.3788   -0.7239    1.2071 C   0  0  0  0  0  0  0  0  0  0  0  0
    3.3738   -0.7285   -1.2089 C   0  0  0  0  0  0  0  0  0  0  0  0
   -3.3171   -2.1043    0.0043 C   0  0  0  0  0  0  0  0  0  0  0  0
    3.9526   -1.1189   -0.0014 C   0  0  0  0  0  0  0  0  0  0  0  0
   -0.4980   -1.5337    0.0054 H   0  0  0  0  0  0  0  0  0  0  0  0
    1.4587    3.1739   -0.0022 H   0  0  0  0  0  0  0  0  0  0  0  0
   -2.6444    3.5731   -0.0031 H   0  0  0  0  0  0  0  0  0  0  0  0
    1.7915    0.3604    2.1590 H   0  0  0  0  0  0  0  0  0  0  0  0
    1.7828    0.3522   -2.1585 H   0  0  0  0  0  0  0  0  0  0  0  0
    3.8297   -1.0284    2.1470 H   0  0  0  0  0  0  0  0  0  0  0  0
    3.8208   -1.0365   -2.1495 H   0  0  0  0  0  0  0  0  0  0  0  0
   -1.6080   -3.3853    0.0120 H   0  0  0  0  0  0  0  0  0  0  0  0
   -3.1258   -4.2040   -0.0005 H   0  0  0  0  0  0  0  0  0  0  0  0
  1  8  1  0  0  0  0
  1 11  1  0  0  0  0
  2 19  1  0  0  0  0
  3 18  2  0  0  0  0
  4 12  1  0  0  0  0
  4 13  2  0  0  0  0
  5 18  1  0  0  0  0
  5 27  1  0  0  0  0
  5 28  1  0  0  0  0
  6  7  1  0  0  0  0
  6  8  2  0  0  0  0
  6 10  1  0  0  0  0
  7  9  1  0  0  0  0
  7 12  2  0  0  0  0
  8 13  1  0  0  0  0
  9 14  2  0  0  0  0
  9 15  1  0  0  0  0
 10 11  2  0  0  0  0
 10 20  1  0  0  0  0
 11 18  1  0  0  0  0
 12 21  1  0  0  0  0
 13 22  1  0  0  0  0
 14 16  1  0  0  0  0
 14 23  1  0  0  0  0
 15 17  2  0  0  0  0
 15 24  1  0  0  0  0
 16 19  2  0  0  0  0
 16 25  1  0  0  0  0
 17 19  1  0  0  0  0
 17 26  1  0  0  0  0
M  END
> <PUBCHEM_COMPOUND_CID>
18516237

> <PUBCHEM_CONFORMER_RMSD>
0.6

> <PUBCHEM_CONFORMER_DIVERSEORDER>
1
4
2
3

> <PUBCHEM_MMFF94_PARTIAL_CHARGES>
25
1 -0.08
10 -0.15
11 -0.05
12 0.16
13 0.16
14 -0.15
15 -0.15
16 -0.15
17 -0.15
18 0.71
19 0.19
2 -0.19
20 0.15
21 0.15
22 0.15
23 0.15
24 0.15
25 0.15
26 0.15
27 0.37
28 0.37
3 -0.57
4 -0.62
5 -0.8
8 0.04

> <PUBCHEM_EFFECTIVE_ROTOR_COUNT>
2

> <PUBCHEM_PHARMACOPHORE_FEATURES>
6
1 3 acceptor
1 4 acceptor
1 5 donor
5 1 6 8 10 11 rings
6 4 6 7 8 12 13 rings
6 9 14 15 16 17 19 rings

> <PUBCHEM_HEAVY_ATOM_COUNT>
19

> <PUBCHEM_ATOM_DEF_STEREO_COUNT>
0

> <PUBCHEM_ATOM_UDEF_STEREO_COUNT>
0

> <PUBCHEM_BOND_DEF_STEREO_COUNT>
0

> <PUBCHEM_BOND_UDEF_STEREO_COUNT>
0

> <PUBCHEM_ISOTOPIC_ATOM_COUNT>
0

> <PUBCHEM_COMPONENT_COUNT>
1

> <PUBCHEM_CACTVS_TAUTO_COUNT>
2

> <PUBCHEM_CONFORMER_ID>
011A890D00000001

> <PUBCHEM_MMFF94_ENERGY>
50.5371

> <PUBCHEM_FEATURE_SELFOVERLAP>
30.512

> <PUBCHEM_SHAPE_FINGERPRINT>
10319926 262 18124852609737818346
10616163 171 18338517413696138926
12236239 1 17604722032273332836
12363563 72 18411139181541917719
12403259 327 15410341086449328511
12500047 106 18050280367581236988
12553582 1 18337680805506077099
13140716 1 18413672422162602953
14787075 74 18043244846336683920
14790565 3 18122919633383372769
14863182 85 16749315579466687039
14866123 147 18268150860325926899
15042514 8 18338241453562528737
15442244 35 18267871756202798945
15885798 251 18411140281448996003
16752209 62 18189603948302369897
16945 1 18338797793239839809
17804303 29 18342458118961615281
18186145 218 11674872247926457092
19049666 15 17413591649610413524
19141452 34 18201722843020749355
19591789 44 17619922660320934345
20291156 8 18336265733909007187
20600515 1 18270967834359208452
20645477 70 17906166605661584791
20871998 22 18340204218972362185
20905425 154 18198064672824340014
21452121 199 18337666550277545472
21634736 98 18187653526375194724
21650355 55 18411696552259026937
221490 88 17974856373718323763
23184049 29 18410289246079093577
23366157 5 17971756820301349925
23402539 116 18270952428654052101
23557571 272 18201155439139035672
23559900 14 18269832009462666628
23598288 3 18042989582938959477
2748010 2 18267855246000671725
3084891 72 18267298730129591565
3091708 16 9206742477878817257
314173 41 18264775548185533899
335352 9 18410855448203486077
3421961 26 18195810901862693731
54173680 148 18410855425869001001
568465 68 17346878927544800014
5902787 121 18410008879172101937
602551 16 18268426846197257106
7364860 26 17909270522190701521
77492 1 17532382963285119944
7970288 3 18410292557499723299
81228 2 18342459184272078561
8863177 126 17608103275738156395
9709674 26 18055637218286042174

> <PUBCHEM_SHAPE_MULTIPOLES>
371.76
7.74
3.43
0.93
3.59
0.85
0
-6.8
-0.01
-3.3
0
0.9
-0.09
0

> <PUBCHEM_SHAPE_SELFOVERLAP>
817.778

> <PUBCHEM_SHAPE_VOLUME>
203.3

> <PUBCHEM_COORDINATE_TYPE>
2
5
10

$$$$
