10389862
  -OEChem-10062121583D

 64 69  0     0  0  0  0  0  0999 V2000
    5.2352    2.3490   -1.3407 O   0  0  0  0  0  0  0  0  0  0  0  0
   -3.5823   -0.9873    2.3168 O   0  0  0  0  0  0  0  0  0  0  0  0
    0.4039   -1.4989    0.8632 N   0  0  0  0  0  0  0  0  0  0  0  0
    0.4090    1.2843    1.0351 N   0  0  0  0  0  0  0  0  0  0  0  0
    5.6348    0.0623   -1.6860 N   0  0  0  0  0  0  0  0  0  0  0  0
   -4.0715    0.1999    0.3803 N   0  0  0  0  0  0  0  0  0  0  0  0
   -6.8955    0.7441   -1.8328 N   0  0  0  0  0  0  0  0  0  0  0  0
    1.4396   -0.7718    0.3843 C   0  0  0  0  0  0  0  0  0  0  0  0
    2.5838   -1.3713   -0.2323 C   0  0  0  0  0  0  0  0  0  0  0  0
    3.7037   -0.7284   -0.7589 C   0  0  0  0  0  0  0  0  0  0  0  0
    1.4430    0.6226    0.4699 C   0  0  0  0  0  0  0  0  0  0  0  0
    2.5922    1.2895   -0.0698 C   0  0  0  0  0  0  0  0  0  0  0  0
    3.6901    0.6667   -0.6646 C   0  0  0  0  0  0  0  0  0  0  0  0
    2.1100   -2.7508   -0.0784 C   0  0  0  0  0  0  0  0  0  0  0  0
    0.8302   -2.7862    0.5672 C   0  0  0  0  0  0  0  0  0  0  0  0
    4.9566   -1.1929   -1.4213 C   0  0  0  0  0  0  0  0  0  0  0  0
    2.1185    2.6437    0.2559 C   0  0  0  0  0  0  0  0  0  0  0  0
   -0.8402   -1.1728    1.5117 C   0  0  0  0  0  0  0  0  0  0  0  0
    0.8367    2.5967    0.9021 C   0  0  0  0  0  0  0  0  0  0  0  0
    4.9214    1.1777   -1.2555 C   0  0  0  0  0  0  0  0  0  0  0  0
    2.6930   -3.9854   -0.4503 C   0  0  0  0  0  0  0  0  0  0  0  0
    0.1718   -3.9976    0.8250 C   0  0  0  0  0  0  0  0  0  0  0  0
   -1.9725   -0.9636    0.5112 C   0  0  0  0  0  0  0  0  0  0  0  0
    2.6887    3.9230    0.0484 C   0  0  0  0  0  0  0  0  0  0  0  0
    0.1727    3.7627    1.3128 C   0  0  0  0  0  0  0  0  0  0  0  0
    2.0275   -5.1869   -0.1885 C   0  0  0  0  0  0  0  0  0  0  0  0
    0.7871   -5.1906    0.4391 C   0  0  0  0  0  0  0  0  0  0  0  0
    2.0181    5.0793    0.4620 C   0  0  0  0  0  0  0  0  0  0  0  0
    0.7796    4.9983    1.0845 C   0  0  0  0  0  0  0  0  0  0  0  0
   -3.2818   -0.6037    1.1895 C   0  0  0  0  0  0  0  0  0  0  0  0
   -5.3699    0.6879    0.7842 C   0  0  0  0  0  0  0  0  0  0  0  0
   -6.4999   -0.2635    0.3960 C   0  0  0  0  0  0  0  0  0  0  0  0
   -6.6409   -0.4967   -1.1110 C   0  0  0  0  0  0  0  0  0  0  0  0
   -8.1414    1.3612   -1.3741 C   0  0  0  0  0  0  0  0  0  0  0  0
   -6.9514    0.4997   -3.2751 C   0  0  0  0  0  0  0  0  0  0  0  0
    4.7636   -1.7005   -2.3693 H   0  0  0  0  0  0  0  0  0  0  0  0
    5.5776   -1.8008   -0.7591 H   0  0  0  0  0  0  0  0  0  0  0  0
   -0.7177   -0.4288    2.2997 H   0  0  0  0  0  0  0  0  0  0  0  0
   -1.1115   -2.0464    2.1200 H   0  0  0  0  0  0  0  0  0  0  0  0
   -0.4981    1.0187    1.3614 H   0  0  0  0  0  0  0  0  0  0  0  0
    6.5406    0.1227   -2.1402 H   0  0  0  0  0  0  0  0  0  0  0  0
    3.6619   -4.0086   -0.9423 H   0  0  0  0  0  0  0  0  0  0  0  0
   -0.8007   -4.0340    1.3051 H   0  0  0  0  0  0  0  0  0  0  0  0
   -2.1472   -1.8778   -0.0697 H   0  0  0  0  0  0  0  0  0  0  0  0
   -1.7005   -0.1811   -0.2068 H   0  0  0  0  0  0  0  0  0  0  0  0
    3.6547    4.0287   -0.4343 H   0  0  0  0  0  0  0  0  0  0  0  0
   -0.7963    3.7095    1.8001 H   0  0  0  0  0  0  0  0  0  0  0  0
    2.4867   -6.1278   -0.4802 H   0  0  0  0  0  0  0  0  0  0  0  0
    0.2861   -6.1359    0.6314 H   0  0  0  0  0  0  0  0  0  0  0  0
    2.4740    6.0513    0.2931 H   0  0  0  0  0  0  0  0  0  0  0  0
    0.2746    5.9082    1.3983 H   0  0  0  0  0  0  0  0  0  0  0  0
   -3.7437    0.4529   -0.5473 H   0  0  0  0  0  0  0  0  0  0  0  0
   -5.5040    1.6758    0.3328 H   0  0  0  0  0  0  0  0  0  0  0  0
   -5.3700    0.8218    1.8719 H   0  0  0  0  0  0  0  0  0  0  0  0
   -6.3073   -1.2395    0.8618 H   0  0  0  0  0  0  0  0  0  0  0  0
   -7.4409    0.0831    0.8369 H   0  0  0  0  0  0  0  0  0  0  0  0
   -7.4446   -1.2251   -1.2831 H   0  0  0  0  0  0  0  0  0  0  0  0
   -5.7175   -0.9590   -1.4821 H   0  0  0  0  0  0  0  0  0  0  0  0
   -8.3856    2.2311   -1.9958 H   0  0  0  0  0  0  0  0  0  0  0  0
   -8.9912    0.6704   -1.4196 H   0  0  0  0  0  0  0  0  0  0  0  0
   -8.0543    1.7545   -0.3568 H   0  0  0  0  0  0  0  0  0  0  0  0
   -7.7657   -0.1814   -3.5481 H   0  0  0  0  0  0  0  0  0  0  0  0
   -6.0078    0.0698   -3.6294 H   0  0  0  0  0  0  0  0  0  0  0  0
   -7.0897    1.4399   -3.8205 H   0  0  0  0  0  0  0  0  0  0  0  0
  1 20  2  0  0  0  0
  2 30  2  0  0  0  0
  3  8  1  0  0  0  0
  3 15  1  0  0  0  0
  3 18  1  0  0  0  0
  4 11  1  0  0  0  0
  4 19  1  0  0  0  0
  4 40  1  0  0  0  0
  5 16  1  0  0  0  0
  5 20  1  0  0  0  0
  5 41  1  0  0  0  0
  6 30  1  0  0  0  0
  6 31  1  0  0  0  0
  6 52  1  0  0  0  0
  7 33  1  0  0  0  0
  7 34  1  0  0  0  0
  7 35  1  0  0  0  0
  8  9  1  0  0  0  0
  8 11  2  0  0  0  0
  9 10  2  0  0  0  0
  9 14  1  0  0  0  0
 10 13  1  0  0  0  0
 10 16  1  0  0  0  0
 11 12  1  0  0  0  0
 12 13  2  0  0  0  0
 12 17  1  0  0  0  0
 13 20  1  0  0  0  0
 14 15  1  0  0  0  0
 14 21  2  0  0  0  0
 15 22  2  0  0  0  0
 16 36  1  0  0  0  0
 16 37  1  0  0  0  0
 17 19  1  0  0  0  0
 17 24  2  0  0  0  0
 18 23  1  0  0  0  0
 18 38  1  0  0  0  0
 18 39  1  0  0  0  0
 19 25  2  0  0  0  0
 21 26  1  0  0  0  0
 21 42  1  0  0  0  0
 22 27  1  0  0  0  0
 22 43  1  0  0  0  0
 23 30  1  0  0  0  0
 23 44  1  0  0  0  0
 23 45  1  0  0  0  0
 24 28  1  0  0  0  0
 24 46  1  0  0  0  0
 25 29  1  0  0  0  0
 25 47  1  0  0  0  0
 26 27  2  0  0  0  0
 26 48  1  0  0  0  0
 27 49  1  0  0  0  0
 28 29  2  0  0  0  0
 28 50  1  0  0  0  0
 29 51  1  0  0  0  0
 31 32  1  0  0  0  0
 31 53  1  0  0  0  0
 31 54  1  0  0  0  0
 32 33  1  0  0  0  0
 32 55  1  0  0  0  0
 32 56  1  0  0  0  0
 33 57  1  0  0  0  0
 33 58  1  0  0  0  0
 34 59  1  0  0  0  0
 34 60  1  0  0  0  0
 34 61  1  0  0  0  0
 35 62  1  0  0  0  0
 35 63  1  0  0  0  0
 35 64  1  0  0  0  0
M  END
> <PUBCHEM_COMPOUND_CID>
10389862

> <PUBCHEM_CONFORMER_RMSD>
1

> <PUBCHEM_CONFORMER_DIVERSEORDER>
5
36
48
10
32
43
49
26
39
6
45
33
58
3
57
25
29
47
13
56
12
46
14
15
28
23
2
18
41
1
35
30
17
16
52
8
4
19
22
24
50
31
9
20
21
37
51
42
7
38
55
27
44
34
11
54
53
40

> <PUBCHEM_MMFF94_PARTIAL_CHARGES>
43
1 -0.57
10 -0.14
11 -0.05
12 -0.01
13 0.09
15 -0.15
16 0.44
18 0.26
19 -0.15
2 -0.57
20 0.54
21 -0.15
22 -0.15
23 0.06
24 -0.15
25 -0.15
26 -0.15
27 -0.15
28 -0.15
29 -0.15
3 -0.04
30 0.57
31 0.3
33 0.27
34 0.27
35 0.27
4 -0.05
40 0.27
41 0.37
42 0.15
43 0.15
46 0.15
47 0.15
48 0.15
49 0.15
5 -0.73
50 0.15
51 0.15
52 0.37
6 -0.73
7 -0.81
8 -0.05
9 -0.01

> <PUBCHEM_EFFECTIVE_ROTOR_COUNT>
8.4

> <PUBCHEM_PHARMACOPHORE_FEATURES>
14
1 1 acceptor
1 2 acceptor
1 3 cation
1 4 cation
1 4 donor
1 5 donor
1 6 donor
1 7 cation
5 3 8 9 14 15 rings
5 4 11 12 17 19 rings
5 5 10 13 16 20 rings
6 14 15 21 22 26 27 rings
6 17 19 24 25 28 29 rings
6 8 9 10 11 12 13 rings

> <PUBCHEM_HEAVY_ATOM_COUNT>
35

> <PUBCHEM_ATOM_DEF_STEREO_COUNT>
0

> <PUBCHEM_ATOM_UDEF_STEREO_COUNT>
0

> <PUBCHEM_BOND_DEF_STEREO_COUNT>
0

> <PUBCHEM_BOND_UDEF_STEREO_COUNT>
0

> <PUBCHEM_ISOTOPIC_ATOM_COUNT>
0

> <PUBCHEM_COMPONENT_COUNT>
1

> <PUBCHEM_CACTVS_TAUTO_COUNT>
10

> <PUBCHEM_CONFORMER_ID>
009E896600000005

> <PUBCHEM_MMFF94_ENERGY>
119.1749

> <PUBCHEM_FEATURE_SELFOVERLAP>
71.512

> <PUBCHEM_SHAPE_FINGERPRINT>
10622 236 17985822636990903563
10675989 125 18337968791969284474
10693767 8 18059581235051321542
10930396 42 18270381868819845122
1100329 8 18052842500636443386
13636023 20 18201718388569873537
13636023 51 17313105237121987098
13911987 19 18192457292840472078
13944108 23 18261388889353390797
14415360 78 18266454493529590228
14790565 3 18123502512095135712
14931854 50 18410867537613531164
15082195 135 18339351964949592609
15324884 4 17899429863173244049
15328829 1 17488765401931401531
15439362 3 18125728034893267704
15444296 8 17337322870093279663
15484559 13 18413668006794161806
15927050 60 17402076413357402558
15950262 2 15720542999184403758
20775438 99 17842825887593519052
21968339 14 18335690616556121803
22121540 332 17822275895138058405
24771293 8 18131350813203940064
350125 39 17691434192111802594
376196 1 18115860970727675227
3882209 13 17829311506693430483
4015057 19 18336550405143623307
4353968 344 18054239722439764950
6086070 43 18409444821317819147

> <PUBCHEM_SHAPE_MULTIPOLES>
683.64
14.89
7.13
1.81
39.71
0.37
-0.94
-4.06
-12.85
-9.02
2.26
2.72
-0.35
1.02

> <PUBCHEM_SHAPE_SELFOVERLAP>
1523.987

> <PUBCHEM_SHAPE_VOLUME>
366

> <PUBCHEM_COORDINATE_TYPE>
2
5
10

$$$$
