6538897
  -OEChem-10062121583D

 30 33  0     0  0  0  0  0  0999 V2000
   -5.8430   -0.8518   -0.2024 Br  0  0  0  0  0  0  0  0  0  0  0  0
    0.8801   -3.5512    0.5850 O   0  0  0  0  0  0  0  0  0  0  0  0
   -0.3860    1.6211    0.2502 N   0  0  0  0  0  0  0  0  0  0  0  0
    2.3012   -1.7899    0.3597 N   0  0  0  0  0  0  0  0  0  0  0  0
    2.3567    1.9042   -0.2941 N   0  0  0  0  0  0  0  0  0  0  0  0
   -0.3847   -0.5065   -0.3785 C   0  0  0  0  0  0  0  0  0  0  0  0
    0.4304    0.5697   -0.0908 C   0  0  0  0  0  0  0  0  0  0  0  0
   -1.7392   -0.0951   -0.1825 C   0  0  0  0  0  0  0  0  0  0  0  0
    0.1203   -1.8146   -0.8465 C   0  0  0  0  0  0  0  0  0  0  0  0
   -1.7071    1.2423    0.2134 C   0  0  0  0  0  0  0  0  0  0  0  0
    1.8836    0.6428   -0.1111 C   0  0  0  0  0  0  0  0  0  0  0  0
    2.7124   -0.4582    0.1149 C   0  0  0  0  0  0  0  0  0  0  0  0
    1.1068   -2.4310    0.1146 C   0  0  0  0  0  0  0  0  0  0  0  0
   -2.9933   -0.7283   -0.3108 C   0  0  0  0  0  0  0  0  0  0  0  0
   -2.8635    1.9787    0.4941 C   0  0  0  0  0  0  0  0  0  0  0  0
   -4.1593   -0.0055   -0.0334 C   0  0  0  0  0  0  0  0  0  0  0  0
   -4.0930    1.3278    0.3636 C   0  0  0  0  0  0  0  0  0  0  0  0
    4.0898   -0.2105    0.1924 C   0  0  0  0  0  0  0  0  0  0  0  0
    4.5949    1.0706    0.0032 C   0  0  0  0  0  0  0  0  0  0  0  0
    3.6930    2.0854   -0.2411 C   0  0  0  0  0  0  0  0  0  0  0  0
    0.6093   -1.7059   -1.8222 H   0  0  0  0  0  0  0  0  0  0  0  0
   -0.7063   -2.5207   -0.9858 H   0  0  0  0  0  0  0  0  0  0  0  0
   -0.0606    2.5423    0.5093 H   0  0  0  0  0  0  0  0  0  0  0  0
   -3.0460   -1.7685   -0.6211 H   0  0  0  0  0  0  0  0  0  0  0  0
   -2.8119    3.0181    0.8006 H   0  0  0  0  0  0  0  0  0  0  0  0
    3.0069   -2.3743    0.8029 H   0  0  0  0  0  0  0  0  0  0  0  0
   -5.0012    1.8870    0.5780 H   0  0  0  0  0  0  0  0  0  0  0  0
    4.7874   -1.0215    0.3915 H   0  0  0  0  0  0  0  0  0  0  0  0
    5.6602    1.2641    0.0488 H   0  0  0  0  0  0  0  0  0  0  0  0
    4.0286    3.1050   -0.3971 H   0  0  0  0  0  0  0  0  0  0  0  0
  1 16  1  0  0  0  0
  2 13  2  0  0  0  0
  3  7  1  0  0  0  0
  3 10  1  0  0  0  0
  3 23  1  0  0  0  0
  4 12  1  0  0  0  0
  4 13  1  0  0  0  0
  4 26  1  0  0  0  0
  5 11  1  0  0  0  0
  5 20  2  0  0  0  0
  6  7  2  0  0  0  0
  6  8  1  0  0  0  0
  6  9  1  0  0  0  0
  7 11  1  0  0  0  0
  8 10  2  0  0  0  0
  8 14  1  0  0  0  0
  9 13  1  0  0  0  0
  9 21  1  0  0  0  0
  9 22  1  0  0  0  0
 10 15  1  0  0  0  0
 11 12  2  0  0  0  0
 12 18  1  0  0  0  0
 14 16  2  0  0  0  0
 14 24  1  0  0  0  0
 15 17  2  0  0  0  0
 15 25  1  0  0  0  0
 16 17  1  0  0  0  0
 17 27  1  0  0  0  0
 18 19  2  0  0  0  0
 18 28  1  0  0  0  0
 19 20  1  0  0  0  0
 19 29  1  0  0  0  0
 20 30  1  0  0  0  0
M  END
> <PUBCHEM_COMPOUND_CID>
6538897

> <PUBCHEM_CONFORMER_RMSD>
0.6

> <PUBCHEM_CONFORMER_DIVERSEORDER>
2
1

> <PUBCHEM_MMFF94_PARTIAL_CHARGES>
27
1 -0.11
10 -0.15
11 0.36
12 0.12
13 0.57
14 -0.15
15 -0.15
16 0.11
17 -0.15
18 -0.15
19 -0.15
2 -0.57
20 0.16
23 0.27
24 0.15
25 0.15
26 0.37
27 0.15
28 0.15
29 0.15
3 0.03
30 0.15
4 -0.55
5 -0.62
6 -0.18
7 -0.2
9 0.24

> <PUBCHEM_EFFECTIVE_ROTOR_COUNT>
0.4

> <PUBCHEM_PHARMACOPHORE_FEATURES>
10
1 1 hydrophobe
1 2 acceptor
1 3 cation
1 3 donor
1 4 donor
1 5 acceptor
5 3 6 7 8 10 rings
6 5 11 12 18 19 20 rings
6 8 10 14 15 16 17 rings
7 4 6 7 9 11 12 13 rings

> <PUBCHEM_HEAVY_ATOM_COUNT>
20

> <PUBCHEM_ATOM_DEF_STEREO_COUNT>
0

> <PUBCHEM_ATOM_UDEF_STEREO_COUNT>
0

> <PUBCHEM_BOND_DEF_STEREO_COUNT>
0

> <PUBCHEM_BOND_UDEF_STEREO_COUNT>
0

> <PUBCHEM_ISOTOPIC_ATOM_COUNT>
0

> <PUBCHEM_COMPONENT_COUNT>
1

> <PUBCHEM_CACTVS_TAUTO_COUNT>
4

> <PUBCHEM_CONFORMER_ID>
0063C69100000002

> <PUBCHEM_MMFF94_ENERGY>
56.0888

> <PUBCHEM_FEATURE_SELFOVERLAP>
50.88

> <PUBCHEM_SHAPE_FINGERPRINT>
10090160 65 18334571373874838375
10411042 1 17473544651155772499
10493431 412 18338513161857552168
10616163 171 18412546526645588447
10967382 1 18411136917946115308
1100329 8 18124031496966962921
11578080 2 17170671073596788775
12107183 9 17691972557761657257
12236239 1 18202283601966005629
12592029 89 18409731746539196730
12644460 14 18264215716077195938
12788726 201 17467631941983872834
13009979 54 17629200399249484106
13140716 1 18196083567518498042
13836976 161 18261394485478720212
138480 1 17905607696850558098
14178342 30 18123458385426835968
14223421 5 18264208015422418845
146900 427 18201726180183952217
14787075 74 18272651307098973265
14790565 3 18340211889805480505
15196674 1 18340769256358685733
15442244 35 17979919302493673649
15536298 74 18272090444399548062
15927050 60 17190382422707741069
16945 1 18192708947410801580
17492 89 18268148661160778847
19591789 44 18340205292534513198
19784866 9 18412826858802114129
200 152 18342734131272727309
20028762 73 18343295947076032878
20157964 124 18265328414130731437
20645477 70 18261669294502806187
21267235 1 18412834581063576391
21421861 104 18045221540050697409
21501502 16 18269556040291196617
21524375 3 18343303690769172180
21623969 137 18261688064285655691
22854114 111 18410014299441935012
23366157 5 18043819688442702350
23402539 116 18201432635753261508
23463225 33 18339642239570643469
23559900 14 18052814750299264863
25147074 1 18058724694613902689
2871803 45 18411417310944534375
33824 294 18407759231137155498
34934 24 18342454808148335581
350125 39 18410854378092250564
42630746 31 18412545413848021895
4340502 62 17749110006786466507
43471831 8 18409728435119502114
4409770 3 14523081713493757605
474 4 18334860523604594504
474229 33 18339363066981324503
5104073 3 18339925913913352529
5312544 6 18335983163631097220
5486654 2 18339364187904394487
59755656 215 18272097088671835486
6138700 20 18268156349558336582
6333272 397 18410293627045695954
633830 44 18343305855395935436
7097593 13 17687748238208901755
7364860 26 18198064681624738334
8272917 22 18338520729067441471
9709674 26 18337961090982666043
9999458 23 18334577953848989270

> <PUBCHEM_SHAPE_MULTIPOLES>
396.72
9.61
2.72
0.71
6.02
1.55
-0.03
-2.12
0.02
-1.21
0.34
0.07
0.09
-0.71

> <PUBCHEM_SHAPE_SELFOVERLAP>
884.013

> <PUBCHEM_SHAPE_VOLUME>
215.3

> <PUBCHEM_COORDINATE_TYPE>
2
5
10

$$$$
