21362699
  -OEChem-10062122043D

 37 40  0     0  0  0  0  0  0999 V2000
   -0.3846   -2.2858    0.6329 Cl  0  0  0  0  0  0  0  0  0  0  0  0
   -0.7340    3.1365    0.3752 Cl  0  0  0  0  0  0  0  0  0  0  0  0
   -6.5292   -0.7047    0.1430 O   0  0  0  0  0  0  0  0  0  0  0  0
   -1.7900    0.3609    0.6704 O   0  0  0  0  0  0  0  0  0  0  0  0
   -2.0036    0.2396   -1.6329 O   0  0  0  0  0  0  0  0  0  0  0  0
   -3.8960    0.1837   -0.2874 N   0  0  0  0  0  0  0  0  0  0  0  0
    2.7004   -1.5892    0.1927 N   0  0  0  0  0  0  0  0  0  0  0  0
    6.2754   -0.8356   -0.3142 N   0  0  0  0  0  0  0  0  0  0  0  0
   -4.8335    0.0740   -1.4025 C   0  0  0  0  0  0  0  0  0  0  0  0
   -4.5223    0.3313    1.0286 C   0  0  0  0  0  0  0  0  0  0  0  0
   -5.8863   -0.9841   -1.1041 C   0  0  0  0  0  0  0  0  0  0  0  0
   -5.5921   -0.7351    1.2234 C   0  0  0  0  0  0  0  0  0  0  0  0
    2.3665    0.6148    0.1120 C   0  0  0  0  0  0  0  0  0  0  0  0
    1.7299   -0.6175    0.2646 C   0  0  0  0  0  0  0  0  0  0  0  0
    3.7637    0.3558   -0.0560 C   0  0  0  0  0  0  0  0  0  0  0  0
    3.9385   -1.0265   -0.0004 C   0  0  0  0  0  0  0  0  0  0  0  0
   -2.5207    0.2588   -0.5165 C   0  0  0  0  0  0  0  0  0  0  0  0
    0.3480   -0.7375    0.4519 C   0  0  0  0  0  0  0  0  0  0  0  0
   -0.4061    0.4386    0.4841 C   0  0  0  0  0  0  0  0  0  0  0  0
    1.5833    1.7877    0.1485 C   0  0  0  0  0  0  0  0  0  0  0  0
    0.2003    1.6835    0.3349 C   0  0  0  0  0  0  0  0  0  0  0  0
    4.8943    1.1649   -0.2494 C   0  0  0  0  0  0  0  0  0  0  0  0
    5.1879   -1.6192   -0.1291 C   0  0  0  0  0  0  0  0  0  0  0  0
    6.1101    0.5052   -0.3696 C   0  0  0  0  0  0  0  0  0  0  0  0
   -4.3094   -0.1566   -2.3348 H   0  0  0  0  0  0  0  0  0  0  0  0
   -5.3051    1.0578   -1.5102 H   0  0  0  0  0  0  0  0  0  0  0  0
   -4.9768    1.3288    1.0429 H   0  0  0  0  0  0  0  0  0  0  0  0
   -3.7875    0.2830    1.8360 H   0  0  0  0  0  0  0  0  0  0  0  0
   -6.6525   -0.9838   -1.8856 H   0  0  0  0  0  0  0  0  0  0  0  0
   -5.4455   -1.9874   -1.0660 H   0  0  0  0  0  0  0  0  0  0  0  0
   -5.1499   -1.7363    1.2888 H   0  0  0  0  0  0  0  0  0  0  0  0
   -6.1423   -0.5506    2.1513 H   0  0  0  0  0  0  0  0  0  0  0  0
    2.5257   -2.5815    0.2716 H   0  0  0  0  0  0  0  0  0  0  0  0
    2.0577    2.7588    0.0320 H   0  0  0  0  0  0  0  0  0  0  0  0
    4.8312    2.2457   -0.3027 H   0  0  0  0  0  0  0  0  0  0  0  0
    5.3485   -2.6885   -0.0889 H   0  0  0  0  0  0  0  0  0  0  0  0
    7.0251    1.0702   -0.5205 H   0  0  0  0  0  0  0  0  0  0  0  0
  1 18  1  0  0  0  0
  2 21  1  0  0  0  0
  3 11  1  0  0  0  0
  3 12  1  0  0  0  0
  4 17  1  0  0  0  0
  4 19  1  0  0  0  0
  5 17  2  0  0  0  0
  6  9  1  0  0  0  0
  6 10  1  0  0  0  0
  6 17  1  0  0  0  0
  7 14  1  0  0  0  0
  7 16  1  0  0  0  0
  7 33  1  0  0  0  0
  8 23  2  0  0  0  0
  8 24  1  0  0  0  0
  9 11  1  0  0  0  0
  9 25  1  0  0  0  0
  9 26  1  0  0  0  0
 10 12  1  0  0  0  0
 10 27  1  0  0  0  0
 10 28  1  0  0  0  0
 11 29  1  0  0  0  0
 11 30  1  0  0  0  0
 12 31  1  0  0  0  0
 12 32  1  0  0  0  0
 13 14  1  0  0  0  0
 13 15  1  0  0  0  0
 13 20  2  0  0  0  0
 14 18  2  0  0  0  0
 15 16  2  0  0  0  0
 15 22  1  0  0  0  0
 16 23  1  0  0  0  0
 18 19  1  0  0  0  0
 19 21  2  0  0  0  0
 20 21  1  0  0  0  0
 20 34  1  0  0  0  0
 22 24  2  0  0  0  0
 22 35  1  0  0  0  0
 23 36  1  0  0  0  0
 24 37  1  0  0  0  0
M  END
> <PUBCHEM_COMPOUND_CID>
21362699

> <PUBCHEM_CONFORMER_RMSD>
0.8

> <PUBCHEM_CONFORMER_DIVERSEORDER>
1
5
2
4
6
3

> <PUBCHEM_MMFF94_PARTIAL_CHARGES>
27
1 -0.18
10 0.3
11 0.28
12 0.28
14 -0.15
16 -0.15
17 0.78
18 0.18
19 0.08
2 -0.18
20 -0.15
21 0.18
22 -0.15
23 0.16
24 0.16
3 -0.56
33 0.27
34 0.15
35 0.15
36 0.15
37 0.15
4 -0.23
5 -0.57
6 -0.66
7 0.03
8 -0.62
9 0.3

> <PUBCHEM_EFFECTIVE_ROTOR_COUNT>
4.2

> <PUBCHEM_PHARMACOPHORE_FEATURES>
9
1 3 acceptor
1 5 acceptor
1 7 cation
1 7 donor
1 8 acceptor
5 7 13 14 15 16 rings
6 13 14 18 19 20 21 rings
6 3 6 9 10 11 12 rings
6 8 15 16 22 23 24 rings

> <PUBCHEM_HEAVY_ATOM_COUNT>
24

> <PUBCHEM_ATOM_DEF_STEREO_COUNT>
0

> <PUBCHEM_ATOM_UDEF_STEREO_COUNT>
0

> <PUBCHEM_BOND_DEF_STEREO_COUNT>
0

> <PUBCHEM_BOND_UDEF_STEREO_COUNT>
0

> <PUBCHEM_ISOTOPIC_ATOM_COUNT>
0

> <PUBCHEM_COMPONENT_COUNT>
1

> <PUBCHEM_CACTVS_TAUTO_COUNT>
2

> <PUBCHEM_CONFORMER_ID>
0145F80B00000001

> <PUBCHEM_MMFF94_ENERGY>
55.728

> <PUBCHEM_FEATURE_SELFOVERLAP>
45.858

> <PUBCHEM_SHAPE_FINGERPRINT>
10 15 17604144943693923936
10299344 5 18060421330854339511
10906281 52 18270983300757155814
11578080 2 16915081066448223834
11963148 33 18342731923175332478
12166972 35 17894917321703551028
12236239 1 17846782914399728457
12516196 113 18272931634924082553
12596602 18 17060336361992722739
12730499 353 18187366532471393698
12788726 201 18340482257922417600
13402501 40 18260551138517262339
13533116 47 18341894061687515706
13590594 115 18130792261139332961
13685833 64 18408889551082044155
13782708 43 17531242808155339330
13862211 1 18411134710707725050
14347332 77 18127978499493661670
15183329 4 18272368680760232974
15196674 1 18338237059747856808
17492 89 18053101727503901014
1813 80 18202294588540179301
19489759 90 15068621587277775191
19784866 140 18336541638191789776
200 152 18413107238609643408
20028762 73 18202280294942038550
20612939 158 18337110167408351637
21236236 1 18340491058469032601
21267235 1 18341057328975044166
21521721 280 18334017228314074304
21623969 137 18409738360847250819
21641784 216 18115604668153847212
221357 26 18408035208582244149
22950370 63 18272651246837594837
23035841 295 17917993875440835431
23402539 116 18271806795963748129
23522609 53 17915206647919822313
23536379 177 16774082868607626019
23559900 14 18268143330588997545
23569943 247 17843977935737026950
283562 15 18337674096550941776
3004659 81 18259702294529609906
314194 84 18343581841299076155
335352 9 18408609176281723054
34797466 226 16009044872798146710
351380 3 18060696195564937511
3545911 37 18333454253355746390
4325135 7 18335421278871997359
4340502 62 16588022411934367618
46194498 28 17676204706236650132
465052 167 18131353028926717694
5104073 3 18269833113116457224
59755656 215 18259987054803458978
9709674 26 18269847424174450462

> <PUBCHEM_SHAPE_MULTIPOLES>
465.1
15.14
2.1
1.03
4.45
0.88
0.17
-4.76
2.34
-0.84
-0.36
1.5
-0.07
-0.1

> <PUBCHEM_SHAPE_SELFOVERLAP>
1010.723

> <PUBCHEM_SHAPE_VOLUME>
255.5

> <PUBCHEM_COORDINATE_TYPE>
2
5
10

$$$$
