10369873
  -OEChem-10052115153D

 78 82  0     0  0  0  0  0  0999 V2000
    1.1364    4.1155    1.1648 O   0  0  0  0  0  0  0  0  0  0  0  0
   -3.9658   -2.7308   -0.1909 N   0  0  0  0  0  0  0  0  0  0  0  0
   -3.2512   -2.0387    0.7443 N   0  0  0  0  0  0  0  0  0  0  0  0
   -4.0241   -4.0888   -2.1661 N   0  0  0  0  0  0  0  0  0  0  0  0
    1.6532    3.5028   -1.0414 N   0  0  0  0  0  0  0  0  0  0  0  0
    3.0583    1.8119   -1.9606 N   0  0  0  0  0  0  0  0  0  0  0  0
    3.9183    0.7709   -1.7986 N   0  0  0  0  0  0  0  0  0  0  0  0
   -6.1980    1.0009   -0.8504 C   0  0  0  0  0  0  0  0  0  0  0  0
   -5.5951    2.3334   -0.4017 C   0  0  0  0  0  0  0  0  0  0  0  0
   -5.5439   -0.2169   -0.1904 C   0  0  0  0  0  0  0  0  0  0  0  0
   -4.1018    2.4044   -0.7291 C   0  0  0  0  0  0  0  0  0  0  0  0
   -6.0660   -1.5823   -0.6464 C   0  0  0  0  0  0  0  0  0  0  0  0
   -3.5052    3.7516   -0.3145 C   0  0  0  0  0  0  0  0  0  0  0  0
   -5.3990   -2.7563    0.0637 C   0  0  0  0  0  0  0  0  0  0  0  0
    0.2622   -2.3604   -0.6729 C   0  0  0  0  0  0  0  0  0  0  0  0
   -1.2165   -2.5741   -0.5743 C   0  0  0  0  0  0  0  0  0  0  0  0
   -2.0194    3.8328   -0.6719 C   0  0  0  0  0  0  0  0  0  0  0  0
    0.9189   -2.4347    0.6992 C   0  0  0  0  0  0  0  0  0  0  0  0
   -1.9660   -1.9744    0.5735 C   0  0  0  0  0  0  0  0  0  0  0  0
    0.2494   -1.4830    1.6529 C   0  0  0  0  0  0  0  0  0  0  0  0
   -1.1375   -1.2653    1.5930 C   0  0  0  0  0  0  0  0  0  0  0  0
   -1.3582    5.1512   -0.2506 C   0  0  0  0  0  0  0  0  0  0  0  0
   -1.9159   -3.2835   -1.4661 C   0  0  0  0  0  0  0  0  0  0  0  0
   -3.3854   -3.3830   -1.2741 C   0  0  0  0  0  0  0  0  0  0  0  0
    0.1062    5.2986   -0.6634 C   0  0  0  0  0  0  0  0  0  0  0  0
    1.0017   -0.8453    2.6484 C   0  0  0  0  0  0  0  0  0  0  0  0
   -1.7507   -0.4033    2.5120 C   0  0  0  0  0  0  0  0  0  0  0  0
    0.3869    0.0151    3.5575 C   0  0  0  0  0  0  0  0  0  0  0  0
   -0.9862    0.2372    3.4875 C   0  0  0  0  0  0  0  0  0  0  0  0
    1.0279    4.2525   -0.0493 C   0  0  0  0  0  0  0  0  0  0  0  0
    2.5491    2.4208   -0.8687 C   0  0  0  0  0  0  0  0  0  0  0  0
    2.8613    2.0353    0.4196 C   0  0  0  0  0  0  0  0  0  0  0  0
    3.7364    0.9761    0.5843 C   0  0  0  0  0  0  0  0  0  0  0  0
    4.2413    0.3726   -0.5498 C   0  0  0  0  0  0  0  0  0  0  0  0
    5.1588   -0.7370   -0.4714 C   0  0  0  0  0  0  0  0  0  0  0  0
    6.3860   -0.5828    0.1737 C   0  0  0  0  0  0  0  0  0  0  0  0
    4.8192   -1.9648   -1.0400 C   0  0  0  0  0  0  0  0  0  0  0  0
    7.2736   -1.6562    0.2501 C   0  0  0  0  0  0  0  0  0  0  0  0
    5.7068   -3.0381   -0.9635 C   0  0  0  0  0  0  0  0  0  0  0  0
    6.9340   -2.8837   -0.3184 C   0  0  0  0  0  0  0  0  0  0  0  0
   -6.1123    0.9120   -1.9404 H   0  0  0  0  0  0  0  0  0  0  0  0
   -7.2697    1.0016   -0.6184 H   0  0  0  0  0  0  0  0  0  0  0  0
   -5.7467    2.4620    0.6766 H   0  0  0  0  0  0  0  0  0  0  0  0
   -6.1254    3.1515   -0.9032 H   0  0  0  0  0  0  0  0  0  0  0  0
   -5.6454   -0.1324    0.8984 H   0  0  0  0  0  0  0  0  0  0  0  0
   -4.4777   -0.1859   -0.4215 H   0  0  0  0  0  0  0  0  0  0  0  0
   -3.5471    1.6250   -0.1974 H   0  0  0  0  0  0  0  0  0  0  0  0
   -3.9493    2.2454   -1.8032 H   0  0  0  0  0  0  0  0  0  0  0  0
   -5.9239   -1.6748   -1.7303 H   0  0  0  0  0  0  0  0  0  0  0  0
   -7.1465   -1.6301   -0.4653 H   0  0  0  0  0  0  0  0  0  0  0  0
   -3.6310    3.8938    0.7656 H   0  0  0  0  0  0  0  0  0  0  0  0
   -4.0449    4.5652   -0.8138 H   0  0  0  0  0  0  0  0  0  0  0  0
   -5.8383   -3.6986   -0.2835 H   0  0  0  0  0  0  0  0  0  0  0  0
   -5.5983   -2.7049    1.1417 H   0  0  0  0  0  0  0  0  0  0  0  0
    0.7268   -3.1009   -1.3349 H   0  0  0  0  0  0  0  0  0  0  0  0
    0.4444   -1.3732   -1.1178 H   0  0  0  0  0  0  0  0  0  0  0  0
   -1.4910    2.9968   -0.1975 H   0  0  0  0  0  0  0  0  0  0  0  0
   -1.9023    3.7067   -1.7554 H   0  0  0  0  0  0  0  0  0  0  0  0
    0.8530   -3.4509    1.1073 H   0  0  0  0  0  0  0  0  0  0  0  0
    1.9820   -2.1878    0.5962 H   0  0  0  0  0  0  0  0  0  0  0  0
   -1.9236    5.9873   -0.6802 H   0  0  0  0  0  0  0  0  0  0  0  0
   -1.4354    5.2484    0.8396 H   0  0  0  0  0  0  0  0  0  0  0  0
   -1.4489   -3.7565   -2.3218 H   0  0  0  0  0  0  0  0  0  0  0  0
    0.1723    5.2938   -1.7572 H   0  0  0  0  0  0  0  0  0  0  0  0
    0.4778    6.2773   -0.3361 H   0  0  0  0  0  0  0  0  0  0  0  0
    2.0727   -1.0163    2.7225 H   0  0  0  0  0  0  0  0  0  0  0  0
   -2.8202   -0.2124    2.4841 H   0  0  0  0  0  0  0  0  0  0  0  0
    0.9790    0.5098    4.3219 H   0  0  0  0  0  0  0  0  0  0  0  0
   -1.4638    0.9073    4.1966 H   0  0  0  0  0  0  0  0  0  0  0  0
   -3.3900   -4.4735   -2.8733 H   0  0  0  0  0  0  0  0  0  0  0  0
    1.4665    3.7267   -2.0155 H   0  0  0  0  0  0  0  0  0  0  0  0
    2.4864    2.4781    1.3278 H   0  0  0  0  0  0  0  0  0  0  0  0
    4.0024    0.6408    1.5818 H   0  0  0  0  0  0  0  0  0  0  0  0
    6.6725    0.3671    0.6191 H   0  0  0  0  0  0  0  0  0  0  0  0
    3.8654   -2.1056   -1.5432 H   0  0  0  0  0  0  0  0  0  0  0  0
    8.2296   -1.5359    0.7512 H   0  0  0  0  0  0  0  0  0  0  0  0
    5.4421   -3.9944   -1.4050 H   0  0  0  0  0  0  0  0  0  0  0  0
    7.6250   -3.7195   -0.2589 H   0  0  0  0  0  0  0  0  0  0  0  0
  1 30  2  0  0  0  0
  2  3  1  0  0  0  0
  2 14  1  0  0  0  0
  2 24  1  0  0  0  0
  3 19  2  0  0  0  0
  4 24  2  0  0  0  0
  4 70  1  0  0  0  0
  5 30  1  0  0  0  0
  5 31  1  0  0  0  0
  5 71  1  0  0  0  0
  6  7  1  0  0  0  0
  6 31  2  0  0  0  0
  7 34  2  0  0  0  0
  8  9  1  0  0  0  0
  8 10  1  0  0  0  0
  8 41  1  0  0  0  0
  8 42  1  0  0  0  0
  9 11  1  0  0  0  0
  9 43  1  0  0  0  0
  9 44  1  0  0  0  0
 10 12  1  0  0  0  0
 10 45  1  0  0  0  0
 10 46  1  0  0  0  0
 11 13  1  0  0  0  0
 11 47  1  0  0  0  0
 11 48  1  0  0  0  0
 12 14  1  0  0  0  0
 12 49  1  0  0  0  0
 12 50  1  0  0  0  0
 13 17  1  0  0  0  0
 13 51  1  0  0  0  0
 13 52  1  0  0  0  0
 14 53  1  0  0  0  0
 14 54  1  0  0  0  0
 15 16  1  0  0  0  0
 15 18  1  0  0  0  0
 15 55  1  0  0  0  0
 15 56  1  0  0  0  0
 16 19  1  0  0  0  0
 16 23  2  0  0  0  0
 17 22  1  0  0  0  0
 17 57  1  0  0  0  0
 17 58  1  0  0  0  0
 18 20  1  0  0  0  0
 18 59  1  0  0  0  0
 18 60  1  0  0  0  0
 19 21  1  0  0  0  0
 20 21  1  0  0  0  0
 20 26  2  0  0  0  0
 21 27  2  0  0  0  0
 22 25  1  0  0  0  0
 22 61  1  0  0  0  0
 22 62  1  0  0  0  0
 23 24  1  0  0  0  0
 23 63  1  0  0  0  0
 25 30  1  0  0  0  0
 25 64  1  0  0  0  0
 25 65  1  0  0  0  0
 26 28  1  0  0  0  0
 26 66  1  0  0  0  0
 27 29  1  0  0  0  0
 27 67  1  0  0  0  0
 28 29  2  0  0  0  0
 28 68  1  0  0  0  0
 29 69  1  0  0  0  0
 31 32  1  0  0  0  0
 32 33  2  0  0  0  0
 32 72  1  0  0  0  0
 33 34  1  0  0  0  0
 33 73  1  0  0  0  0
 34 35  1  0  0  0  0
 35 36  2  0  0  0  0
 35 37  1  0  0  0  0
 36 38  1  0  0  0  0
 36 74  1  0  0  0  0
 37 39  2  0  0  0  0
 37 75  1  0  0  0  0
 38 40  2  0  0  0  0
 38 76  1  0  0  0  0
 39 40  1  0  0  0  0
 39 77  1  0  0  0  0
 40 78  1  0  0  0  0
M  END
> <PUBCHEM_COMPOUND_CID>
10369873

> <PUBCHEM_CONFORMER_RMSD>
1.6

> <PUBCHEM_CONFORMER_DIVERSEORDER>
5
1
128
24
117
15
70
14
104
22
66
92
8
45
87
108
28
132
151
79
26
9
13
34
94
111
59
77
163
110
19
161
31
167
113
36
144
95
17
48
149
154
43
69
112
4
51
148
39
134
130
107
53
165
143
155
65
62
85
139
133
105
40
119
131
2
124
126
78
55
160
38
21
138
115
25
74
68
162
63
71
84
86
76
52
100
49
29
91
20
7
73
140
103
141
27
54
33
12
47
164
44
41
159
83
72
30
97
56
81
11
137
88
135
58
170
136
61
116
152
153
169
106
157
122
125
50
82
3
102
98
121
129
60
10
150
99
168
146
90
18
46
93
35
114
156
16
64
32
37
57
158
166
123
89
118
142
109
127
101
172
145
6
67
23
80
147
96
120
75
42
171

> <PUBCHEM_MMFF94_PARTIAL_CHARGES>
45
1 -0.57
14 0.37
15 0.14
16 -0.12
18 0.14
19 0.35
2 -0.38
20 -0.14
21 0.09
23 -0.14
24 0.49
25 0.06
26 -0.15
27 -0.15
28 -0.15
29 -0.15
3 -0.49
30 0.57
31 0.43
32 -0.15
33 -0.15
34 0.31
36 -0.15
37 -0.15
38 -0.15
39 -0.15
4 -0.85
40 -0.15
5 -0.55
6 -0.31
63 0.15
66 0.15
67 0.15
68 0.15
69 0.15
7 -0.31
70 0.4
71 0.37
72 0.15
73 0.15
74 0.15
75 0.15
76 0.15
77 0.15
78 0.15

> <PUBCHEM_EFFECTIVE_ROTOR_COUNT>
14.4

> <PUBCHEM_PHARMACOPHORE_FEATURES>
11
1 1 acceptor
1 3 acceptor
1 4 donor
1 5 donor
1 7 acceptor
3 2 4 24 cation
6 15 16 18 19 20 21 rings
6 2 3 16 19 23 24 rings
6 20 21 26 27 28 29 rings
6 35 36 37 38 39 40 rings
6 6 7 31 32 33 34 rings

> <PUBCHEM_HEAVY_ATOM_COUNT>
40

> <PUBCHEM_ATOM_DEF_STEREO_COUNT>
0

> <PUBCHEM_ATOM_UDEF_STEREO_COUNT>
0

> <PUBCHEM_BOND_DEF_STEREO_COUNT>
0

> <PUBCHEM_BOND_UDEF_STEREO_COUNT>
0

> <PUBCHEM_ISOTOPIC_ATOM_COUNT>
0

> <PUBCHEM_COMPONENT_COUNT>
1

> <PUBCHEM_CACTVS_TAUTO_COUNT>
3

> <PUBCHEM_CONFORMER_ID>
009E3B5100000005

> <PUBCHEM_MMFF94_ENERGY>
95.858

> <PUBCHEM_FEATURE_SELFOVERLAP>
55.876

> <PUBCHEM_SHAPE_FINGERPRINT>
10483366 6 18339077082473803253
10864689 126 18265321834088217029
11093857 51 16895642413322258433
11513181 2 17907013229451494181
12156800 1 18120626103924889856
13347071 3 18268429045146770310
13761468 95 18044082467917047029
14674994 50 18268158552565271040
15001296 14 17973710666071151885
15297060 5 17912922790892057377
15781502 589 18268438004306209716
15975801 100 17096922464950969405
17977149 70 18340761654520344841
19311894 1 18410008810843431309
20764821 26 18122660229694418468
21133410 62 17681260080555462317
21133410 90 17489579065398768064
354706 35 15955261532141049909
437795 70 18334580113996083728
4394409 98 17917994957836456639
508180 173 18260829297657927729

> <PUBCHEM_SHAPE_MULTIPOLES>
787.43
15.13
7.25
2.35
10.96
7.96
2.56
-9.75
-6.27
-4.96
-3.22
-0.25
-0.74
-0.37

> <PUBCHEM_SHAPE_SELFOVERLAP>
1675.558

> <PUBCHEM_SHAPE_VOLUME>
434.1

> <PUBCHEM_COORDINATE_TYPE>
2
5
10

$$$$
