49830427
  -OEChem-10062121563D

 40 42  0     0  0  0  0  0  0999 V2000
    7.4980    1.4103   -1.2288 F   0  0  0  0  0  0  0  0  0  0  0  0
    8.5123   -0.0699   -0.0008 F   0  0  0  0  0  0  0  0  0  0  0  0
    7.5044    1.6170    0.9301 F   0  0  0  0  0  0  0  0  0  0  0  0
    0.9736   -1.4077    0.1430 O   0  0  0  0  0  0  0  0  0  0  0  0
   -9.3860   -0.3630    0.0544 O   0  0  0  0  0  0  0  0  0  0  0  0
    0.1855    0.7889   -0.0666 N   0  0  0  0  0  0  0  0  0  0  0  0
    2.4603    0.3887   -0.0339 N   0  0  0  0  0  0  0  0  0  0  0  0
   -6.1841    1.1085    0.4692 N   0  0  0  0  0  0  0  0  0  0  0  0
   -7.5252    0.9168    0.4750 N   0  0  0  0  0  0  0  0  0  0  0  0
   -3.9721    0.3162   -0.0132 C   0  0  0  0  0  0  0  0  0  0  0  0
   -1.2005    0.6312   -0.0479 C   0  0  0  0  0  0  0  0  0  0  0  0
    3.7230   -0.2471    0.0241 C   0  0  0  0  0  0  0  0  0  0  0  0
    6.1353   -0.1158    0.0109 C   0  0  0  0  0  0  0  0  0  0  0  0
   -3.1418   -0.7997    0.0935 C   0  0  0  0  0  0  0  0  0  0  0  0
   -3.4164    1.5895   -0.1376 C   0  0  0  0  0  0  0  0  0  0  0  0
   -1.7562   -0.6423    0.0762 C   0  0  0  0  0  0  0  0  0  0  0  0
   -2.0306    1.7470   -0.1548 C   0  0  0  0  0  0  0  0  0  0  0  0
    4.8910    0.5118   -0.0488 C   0  0  0  0  0  0  0  0  0  0  0  0
   -5.4491    0.1470    0.0049 C   0  0  0  0  0  0  0  0  0  0  0  0
    3.7992   -1.6336    0.1570 C   0  0  0  0  0  0  0  0  0  0  0  0
    6.2116   -1.5022    0.1436 C   0  0  0  0  0  0  0  0  0  0  0  0
    1.1898   -0.2056    0.0266 C   0  0  0  0  0  0  0  0  0  0  0  0
    5.0436   -2.2611    0.2166 C   0  0  0  0  0  0  0  0  0  0  0  0
    7.3844    0.6953   -0.0706 C   0  0  0  0  0  0  0  0  0  0  0  0
   -5.9804   -1.1245   -0.5358 C   0  0  0  0  0  0  0  0  0  0  0  0
   -7.3032   -1.2818   -0.5140 C   0  0  0  0  0  0  0  0  0  0  0  0
   -8.1664   -0.2137    0.0276 C   0  0  0  0  0  0  0  0  0  0  0  0
   -3.5326   -1.8038    0.2280 H   0  0  0  0  0  0  0  0  0  0  0  0
   -4.0430    2.4727   -0.2298 H   0  0  0  0  0  0  0  0  0  0  0  0
   -1.1824   -1.5530    0.1724 H   0  0  0  0  0  0  0  0  0  0  0  0
   -1.6110    2.7450   -0.2541 H   0  0  0  0  0  0  0  0  0  0  0  0
    4.8356    1.5931   -0.1525 H   0  0  0  0  0  0  0  0  0  0  0  0
    0.5150    1.7465   -0.1600 H   0  0  0  0  0  0  0  0  0  0  0  0
    2.4867    1.4006   -0.1307 H   0  0  0  0  0  0  0  0  0  0  0  0
    2.9436   -2.2903    0.2201 H   0  0  0  0  0  0  0  0  0  0  0  0
    7.1706   -2.0105    0.1914 H   0  0  0  0  0  0  0  0  0  0  0  0
    5.1042   -3.3407    0.3198 H   0  0  0  0  0  0  0  0  0  0  0  0
   -5.3451   -1.8847   -0.9689 H   0  0  0  0  0  0  0  0  0  0  0  0
   -7.7742   -2.1768   -0.9030 H   0  0  0  0  0  0  0  0  0  0  0  0
   -8.0586    1.6928    0.8538 H   0  0  0  0  0  0  0  0  0  0  0  0
  1 24  1  0  0  0  0
  2 24  1  0  0  0  0
  3 24  1  0  0  0  0
  4 22  2  0  0  0  0
  5 27  2  0  0  0  0
  6 11  1  0  0  0  0
  6 22  1  0  0  0  0
  6 33  1  0  0  0  0
  7 12  1  0  0  0  0
  7 22  1  0  0  0  0
  7 34  1  0  0  0  0
  8  9  1  0  0  0  0
  8 19  2  0  0  0  0
  9 27  1  0  0  0  0
  9 40  1  0  0  0  0
 10 14  2  0  0  0  0
 10 15  1  0  0  0  0
 10 19  1  0  0  0  0
 11 16  2  0  0  0  0
 11 17  1  0  0  0  0
 12 18  1  0  0  0  0
 12 20  2  0  0  0  0
 13 18  2  0  0  0  0
 13 21  1  0  0  0  0
 13 24  1  0  0  0  0
 14 16  1  0  0  0  0
 14 28  1  0  0  0  0
 15 17  2  0  0  0  0
 15 29  1  0  0  0  0
 16 30  1  0  0  0  0
 17 31  1  0  0  0  0
 18 32  1  0  0  0  0
 19 25  1  0  0  0  0
 20 23  1  0  0  0  0
 20 35  1  0  0  0  0
 21 23  2  0  0  0  0
 21 36  1  0  0  0  0
 23 37  1  0  0  0  0
 25 26  2  0  0  0  0
 25 38  1  0  0  0  0
 26 27  1  0  0  0  0
 26 39  1  0  0  0  0
M  END
> <PUBCHEM_COMPOUND_CID>
49830427

> <PUBCHEM_CONFORMER_RMSD>
0.8

> <PUBCHEM_CONFORMER_DIVERSEORDER>
1
13
29
8
17
9
19
16
6
31
27
3
22
14
7
10
28
18
11
30
15
21
12
20
5
4
2
25
24
26
23

> <PUBCHEM_MMFF94_PARTIAL_CHARGES>
40
1 -0.34
10 0.09
11 0.12
12 0.12
13 -0.14
14 -0.15
15 -0.15
16 -0.15
17 -0.15
18 -0.15
19 0.35
2 -0.34
20 -0.15
21 -0.15
22 0.69
23 -0.15
24 1.16
25 -0.14
26 -0.14
27 0.62
28 0.15
29 0.15
3 -0.34
30 0.15
31 0.15
32 0.15
33 0.37
34 0.37
35 0.15
36 0.15
37 0.15
38 0.15
39 0.15
4 -0.57
40 0.37
5 -0.57
6 -0.55
7 -0.55
8 -0.51
9 -0.37

> <PUBCHEM_EFFECTIVE_ROTOR_COUNT>
6

> <PUBCHEM_PHARMACOPHORE_FEATURES>
9
1 4 acceptor
1 5 acceptor
1 6 donor
1 7 donor
1 8 acceptor
1 9 donor
6 10 11 14 15 16 17 rings
6 12 13 18 20 21 23 rings
6 8 9 19 25 26 27 rings

> <PUBCHEM_HEAVY_ATOM_COUNT>
27

> <PUBCHEM_ATOM_DEF_STEREO_COUNT>
0

> <PUBCHEM_ATOM_UDEF_STEREO_COUNT>
0

> <PUBCHEM_BOND_DEF_STEREO_COUNT>
0

> <PUBCHEM_BOND_UDEF_STEREO_COUNT>
0

> <PUBCHEM_ISOTOPIC_ATOM_COUNT>
0

> <PUBCHEM_COMPONENT_COUNT>
1

> <PUBCHEM_CACTVS_TAUTO_COUNT>
23

> <PUBCHEM_CONFORMER_ID>
02F85A1B00000001

> <PUBCHEM_MMFF94_ENERGY>
82.6677

> <PUBCHEM_FEATURE_SELFOVERLAP>
45.721

> <PUBCHEM_SHAPE_FINGERPRINT>
10050765 1 18050568443806461643
10299344 5 18343301461691831319
10391435 84 17968096468914499827
10595046 47 18337671915028879778
10670039 82 10737275862910908759
10968037 39 18407759235975155863
11315181 36 18202003223360990081
11524674 6 16343698846879514135
11638347 137 16732697230391612426
11724838 91 18335138700763638990
12089408 11 18272369755250844107
12516196 113 18342174457878309864
12643181 29 17603870027079507971
13533116 47 17677043534703277378
13835254 42 18262234396968845844
13885169 127 18410573947356965317
13914758 101 8646775507808415398
13968360 50 14418126297017108305
14118638 360 16733259045856449512
14123256 10 18408040714677173574
14150022 121 17346606223382529905
14251764 18 18342738520280761447
14251764 46 16588024614935935707
14933364 13 18342738503211746520
15301273 46 15698286598646719452
15419008 47 14908178620948127059
15461852 350 16558740214723122885
15510794 2 17603590729287264947
15716309 27 18272367560227189327
15840311 113 18409732890024202316
16120349 18 18333731351323316140
18335252 98 18411139125612312779
20157964 124 18260550009610613834
21049683 271 18413107281596941393
21130935 74 18270963440502026835
21150785 3 18260828206646095218
21267235 1 18409732846551795605
21315763 28 18337389345336668386
22224240 67 17676487250354183818
232437 2 18411700976539487454
23516275 137 17845112704667141047
23522609 53 18195838252268059057
23559900 14 18335698394509799497
249057 3 16298392387355376311
335352 9 18412822504797026311
33684 2 18410292510180028250
34797466 226 18131351917242233876
397830 11 15266195103700566471
4073 2 18040722497832624938
4325135 7 18410012143631908388
5758199 1 18409449180720089467
59682541 35 18409731785415279571
67123 10 18411981373289184427
8209 1 18410575088958046213
9831232 110 17913495640972008070

> <PUBCHEM_SHAPE_MULTIPOLES>
502.16
29.3
1.71
0.69
3.81
0.21
-0.04
0.12
-0.19
-1.3
0
-0.22
-0.07
-0.74

> <PUBCHEM_SHAPE_SELFOVERLAP>
1094.615

> <PUBCHEM_SHAPE_VOLUME>
271

> <PUBCHEM_COORDINATE_TYPE>
2
5
10

$$$$
