24905191
  -OEChem-10052115163D

 42 46  0     0  0  0  0  0  0999 V2000
   -1.9441   -0.0286   -0.0214 N   0  0  0  0  0  0  0  0  0  0  0  0
   -0.8612   -0.7739   -0.3102 N   0  0  0  0  0  0  0  0  0  0  0  0
   -2.5461    2.2805    0.3888 N   0  0  0  0  0  0  0  0  0  0  0  0
   -0.6099    3.7571    0.2424 N   0  0  0  0  0  0  0  0  0  0  0  0
    4.2409   -1.3809    1.2895 N   0  0  0  0  0  0  0  0  0  0  0  0
    1.5855    2.9604   -0.2504 N   0  0  0  0  0  0  0  0  0  0  0  0
   -3.2919   -0.6980    0.1277 C   0  0  0  0  0  0  0  0  0  0  0  0
   -3.3591   -1.7597    1.2452 C   0  0  0  0  0  0  0  0  0  0  0  0
   -3.7384   -1.4179   -1.1575 C   0  0  0  0  0  0  0  0  0  0  0  0
   -3.6844   -3.0758    0.5476 C   0  0  0  0  0  0  0  0  0  0  0  0
   -4.4851   -2.6502   -0.6703 C   0  0  0  0  0  0  0  0  0  0  0  0
   -1.6724    1.3012    0.1060 C   0  0  0  0  0  0  0  0  0  0  0  0
   -0.3130    1.4363   -0.1156 C   0  0  0  0  0  0  0  0  0  0  0  0
    0.1288    0.1238   -0.3663 C   0  0  0  0  0  0  0  0  0  0  0  0
    1.4645   -0.3061   -0.6579 C   0  0  0  0  0  0  0  0  0  0  0  0
    0.2156    2.7205   -0.0395 C   0  0  0  0  0  0  0  0  0  0  0  0
    2.3230   -0.6710    0.3982 C   0  0  0  0  0  0  0  0  0  0  0  0
    1.9360   -0.3700   -1.9742 C   0  0  0  0  0  0  0  0  0  0  0  0
    3.6215   -1.0865    0.0958 C   0  0  0  0  0  0  0  0  0  0  0  0
   -1.9207    3.4767    0.4363 C   0  0  0  0  0  0  0  0  0  0  0  0
    2.1856   -0.7268    1.8135 C   0  0  0  0  0  0  0  0  0  0  0  0
    4.1064   -1.1556   -1.2149 C   0  0  0  0  0  0  0  0  0  0  0  0
    3.2371   -0.7885   -2.2461 C   0  0  0  0  0  0  0  0  0  0  0  0
    3.3812   -1.1667    2.3332 C   0  0  0  0  0  0  0  0  0  0  0  0
   -3.9916    0.1133    0.3622 H   0  0  0  0  0  0  0  0  0  0  0  0
   -4.1740   -1.5036    1.9335 H   0  0  0  0  0  0  0  0  0  0  0  0
   -2.4414   -1.8318    1.8373 H   0  0  0  0  0  0  0  0  0  0  0  0
   -2.8835   -1.7231   -1.7723 H   0  0  0  0  0  0  0  0  0  0  0  0
   -4.3738   -0.7782   -1.7784 H   0  0  0  0  0  0  0  0  0  0  0  0
   -4.2392   -3.7617    1.1942 H   0  0  0  0  0  0  0  0  0  0  0  0
   -2.7583   -3.5733    0.2360 H   0  0  0  0  0  0  0  0  0  0  0  0
   -4.5347   -3.4338   -1.4317 H   0  0  0  0  0  0  0  0  0  0  0  0
   -5.5087   -2.3851   -0.3807 H   0  0  0  0  0  0  0  0  0  0  0  0
    1.2895   -0.0918   -2.8040 H   0  0  0  0  0  0  0  0  0  0  0  0
   -2.5532    4.3290    0.6600 H   0  0  0  0  0  0  0  0  0  0  0  0
    1.3096   -0.4737    2.3953 H   0  0  0  0  0  0  0  0  0  0  0  0
    5.1191   -1.4812   -1.4276 H   0  0  0  0  0  0  0  0  0  0  0  0
    3.5829   -0.8304   -3.2758 H   0  0  0  0  0  0  0  0  0  0  0  0
    5.1928   -1.7080    1.3811 H   0  0  0  0  0  0  0  0  0  0  0  0
    3.6960   -1.3459    3.3515 H   0  0  0  0  0  0  0  0  0  0  0  0
    2.2248    2.2081   -0.4606 H   0  0  0  0  0  0  0  0  0  0  0  0
    1.9285    3.9095   -0.1857 H   0  0  0  0  0  0  0  0  0  0  0  0
  1  2  1  0  0  0  0
  1  7  1  0  0  0  0
  1 12  1  0  0  0  0
  2 14  2  0  0  0  0
  3 12  2  0  0  0  0
  3 20  1  0  0  0  0
  4 16  1  0  0  0  0
  4 20  2  0  0  0  0
  5 19  1  0  0  0  0
  5 24  1  0  0  0  0
  5 39  1  0  0  0  0
  6 16  1  0  0  0  0
  6 41  1  0  0  0  0
  6 42  1  0  0  0  0
  7  8  1  0  0  0  0
  7  9  1  0  0  0  0
  7 25  1  0  0  0  0
  8 10  1  0  0  0  0
  8 26  1  0  0  0  0
  8 27  1  0  0  0  0
  9 11  1  0  0  0  0
  9 28  1  0  0  0  0
  9 29  1  0  0  0  0
 10 11  1  0  0  0  0
 10 30  1  0  0  0  0
 10 31  1  0  0  0  0
 11 32  1  0  0  0  0
 11 33  1  0  0  0  0
 12 13  1  0  0  0  0
 13 14  1  0  0  0  0
 13 16  2  0  0  0  0
 14 15  1  0  0  0  0
 15 17  2  0  0  0  0
 15 18  1  0  0  0  0
 17 19  1  0  0  0  0
 17 21  1  0  0  0  0
 18 23  2  0  0  0  0
 18 34  1  0  0  0  0
 19 22  2  0  0  0  0
 20 35  1  0  0  0  0
 21 24  2  0  0  0  0
 21 36  1  0  0  0  0
 22 23  1  0  0  0  0
 22 37  1  0  0  0  0
 23 38  1  0  0  0  0
 24 40  1  0  0  0  0
M  END
> <PUBCHEM_COMPOUND_CID>
24905191

> <PUBCHEM_CONFORMER_RMSD>
0.6

> <PUBCHEM_CONFORMER_DIVERSEORDER>
1
16
21
18
19
5
8
13
7
14
12
3
6
4
17
11
2
10
9
15
20

> <PUBCHEM_MMFF94_PARTIAL_CHARGES>
27
1 0.31
12 0.11
14 0.23
15 0.05
16 0.41
18 -0.15
19 -0.15
2 -0.71
20 0.47
21 -0.15
22 -0.15
23 -0.15
24 -0.3
3 -0.57
34 0.15
35 0.15
36 0.15
37 0.15
38 0.15
39 0.27
4 -0.62
40 0.15
41 0.4
42 0.4
5 0.03
6 -0.9
7 0.26

> <PUBCHEM_EFFECTIVE_ROTOR_COUNT>
3

> <PUBCHEM_PHARMACOPHORE_FEATURES>
12
1 2 acceptor
1 5 cation
1 5 donor
1 6 cation
1 6 donor
3 1 3 12 cation
3 3 4 20 cation
5 1 2 12 13 14 rings
5 5 17 19 21 24 rings
5 7 8 9 10 11 rings
6 15 17 18 19 22 23 rings
6 3 4 12 13 16 20 rings

> <PUBCHEM_HEAVY_ATOM_COUNT>
24

> <PUBCHEM_ATOM_DEF_STEREO_COUNT>
0

> <PUBCHEM_ATOM_UDEF_STEREO_COUNT>
0

> <PUBCHEM_BOND_DEF_STEREO_COUNT>
0

> <PUBCHEM_BOND_UDEF_STEREO_COUNT>
0

> <PUBCHEM_ISOTOPIC_ATOM_COUNT>
0

> <PUBCHEM_COMPONENT_COUNT>
1

> <PUBCHEM_CACTVS_TAUTO_COUNT>
9

> <PUBCHEM_CONFORMER_ID>
017C05E700000001

> <PUBCHEM_MMFF94_ENERGY>
53.1008

> <PUBCHEM_FEATURE_SELFOVERLAP>
61.269

> <PUBCHEM_SHAPE_FINGERPRINT>
10369192 42 16844433025211566000
1100329 8 18410290277573079225
11370993 144 16701752544452727531
11578080 2 17604688041781158772
11582403 64 16113951283397217576
12160290 23 18194689159642708885
12236239 1 17605853416927129228
12363563 72 18411416258693819183
12549972 3 17129011673548622762
12553582 1 18409740577298282403
12707595 3 18336267967540356255
12788726 201 18261967249595917195
13009979 54 17896034339618116530
13083527 12 18196635500954839865
13140716 1 18413111667132655217
13538477 17 18116158757705085476
13583140 156 17701802307736464030
13782708 43 17703513208280826782
14081887 123 18270390577800515995
14178342 30 18266735775432998314
14787075 74 18043822098436151348
15842332 3 17822865147808588694
16752209 62 18335417937661968255
1813 80 18272374221536991943
18222031 100 18201437038469546087
20505436 4 17391951083348695020
20600515 1 18341037519752854145
20645477 70 18124031501816032959
20905425 154 18341336694659180124
21304303 282 17615089254323563805
21421861 104 18264497350310971097
21452121 199 18339076120116123449
22112679 90 17969792882185745852
23184049 29 18409729577591436761
23366157 5 18044379563547913957
23419403 2 17901627696448678332
23557571 272 18129944460110918508
23559900 14 17912370827749237734
23598288 3 17970642791741525241
392239 28 18188758552957270664
57527293 21 18060129942956037578
5902787 121 18409448128484581223
6049 1 17489027054979860222
613672 6 18341602767967667495
621550 5 17201950088153470734
6442390 28 17408541549591426617
7471813 234 18335133228500686566
7615 1 17822297825435918588
77492 1 17605569755753945180
7970288 3 18339368560060899911
81228 2 18199191694112733281
9841814 1 18265615570863657083

> <PUBCHEM_SHAPE_MULTIPOLES>
464.02
8.07
3.88
1.72
1.14
4.09
-0.07
-8.11
-0.05
3.65
-0.57
-2.1
-1.04
-0.57

> <PUBCHEM_SHAPE_SELFOVERLAP>
1047.753

> <PUBCHEM_SHAPE_VOLUME>
243.9

> <PUBCHEM_COORDINATE_TYPE>
2
5
10

$$$$
