49830617
  -OEChem-10052120443D

 54 57  0     0  0  0  0  0  0999 V2000
    2.3795   -4.8439   -0.7309 F   0  0  0  0  0  0  0  0  0  0  0  0
    5.4151   -0.7209    0.3992 O   0  0  0  0  0  0  0  0  0  0  0  0
   -5.3903   -0.7419    1.3717 O   0  0  0  0  0  0  0  0  0  0  0  0
    3.0314    1.7824   -0.2346 N   0  0  0  0  0  0  0  0  0  0  0  0
   -2.6127    0.9428   -0.1442 N   0  0  0  0  0  0  0  0  0  0  0  0
    0.8175    1.0925   -0.3760 N   0  0  0  0  0  0  0  0  0  0  0  0
   -2.7743   -1.2070    0.4405 N   0  0  0  0  0  0  0  0  0  0  0  0
    1.8290    2.4125   -2.1202 N   0  0  0  0  0  0  0  0  0  0  0  0
   -5.2018    1.4961    0.7533 N   0  0  0  0  0  0  0  0  0  0  0  0
    4.6633    1.2905    1.5701 C   0  0  0  0  0  0  0  0  0  0  0  0
    3.2154    1.1357    1.0446 C   0  0  0  0  0  0  0  0  0  0  0  0
    5.6949    0.6572    0.6100 C   0  0  0  0  0  0  0  0  0  0  0  0
    4.7446    0.5872    2.9411 C   0  0  0  0  0  0  0  0  0  0  0  0
    5.0123    2.7776    1.7662 C   0  0  0  0  0  0  0  0  0  0  0  0
   -1.4170    0.3766   -0.4833 C   0  0  0  0  0  0  0  0  0  0  0  0
    1.8405    1.7615   -0.9412 C   0  0  0  0  0  0  0  0  0  0  0  0
   -0.3268    1.0925   -1.0908 C   0  0  0  0  0  0  0  0  0  0  0  0
   -1.5410   -0.9472   -0.1137 C   0  0  0  0  0  0  0  0  0  0  0  0
   -3.3881   -0.0491    0.4047 C   0  0  0  0  0  0  0  0  0  0  0  0
   -0.5311   -1.9510   -0.2726 C   0  0  0  0  0  0  0  0  0  0  0  0
   -0.4687    1.7214   -2.3109 C   0  0  0  0  0  0  0  0  0  0  0  0
   -3.1173    2.2276   -0.2541 C   0  0  0  0  0  0  0  0  0  0  0  0
   -4.7058    0.2960    0.8461 C   0  0  0  0  0  0  0  0  0  0  0  0
    0.6536    2.3721   -2.7814 C   0  0  0  0  0  0  0  0  0  0  0  0
   -0.0479   -2.2590   -1.5445 C   0  0  0  0  0  0  0  0  0  0  0  0
   -0.0308   -2.6201    0.8443 C   0  0  0  0  0  0  0  0  0  0  0  0
   -4.3701    2.4588    0.1890 C   0  0  0  0  0  0  0  0  0  0  0  0
    0.9352   -3.2362   -1.6993 C   0  0  0  0  0  0  0  0  0  0  0  0
    0.9523   -3.5974    0.6895 C   0  0  0  0  0  0  0  0  0  0  0  0
    1.4353   -3.9053   -0.5822 C   0  0  0  0  0  0  0  0  0  0  0  0
   -6.6963   -0.4020    1.8096 C   0  0  0  0  0  0  0  0  0  0  0  0
    2.5166    1.5701    1.7715 H   0  0  0  0  0  0  0  0  0  0  0  0
    2.9659    0.0704    0.9569 H   0  0  0  0  0  0  0  0  0  0  0  0
    6.7056    0.7353    1.0271 H   0  0  0  0  0  0  0  0  0  0  0  0
    5.6989    1.1573   -0.3641 H   0  0  0  0  0  0  0  0  0  0  0  0
    5.7568    0.6470    3.3568 H   0  0  0  0  0  0  0  0  0  0  0  0
    4.0622    1.0502    3.6631 H   0  0  0  0  0  0  0  0  0  0  0  0
    4.4769   -0.4726    2.8670 H   0  0  0  0  0  0  0  0  0  0  0  0
    4.2809    3.2725    2.4150 H   0  0  0  0  0  0  0  0  0  0  0  0
    5.9977    2.8903    2.2330 H   0  0  0  0  0  0  0  0  0  0  0  0
    5.0407    3.3226    0.8171 H   0  0  0  0  0  0  0  0  0  0  0  0
    3.7977    2.2854   -0.6653 H   0  0  0  0  0  0  0  0  0  0  0  0
    6.0976   -1.0620   -0.2036 H   0  0  0  0  0  0  0  0  0  0  0  0
   -1.3896    1.7094   -2.8806 H   0  0  0  0  0  0  0  0  0  0  0  0
   -2.4980    3.0056   -0.6810 H   0  0  0  0  0  0  0  0  0  0  0  0
    0.6388    2.8932   -3.7326 H   0  0  0  0  0  0  0  0  0  0  0  0
   -0.4296   -1.7564   -2.4301 H   0  0  0  0  0  0  0  0  0  0  0  0
   -0.3947   -2.3909    1.8432 H   0  0  0  0  0  0  0  0  0  0  0  0
   -4.7939    3.4550    0.1201 H   0  0  0  0  0  0  0  0  0  0  0  0
    1.3105   -3.4776   -2.6893 H   0  0  0  0  0  0  0  0  0  0  0  0
    1.3425   -4.1181    1.5589 H   0  0  0  0  0  0  0  0  0  0  0  0
   -6.6620    0.3431    2.6114 H   0  0  0  0  0  0  0  0  0  0  0  0
   -7.3140   -0.0538    0.9751 H   0  0  0  0  0  0  0  0  0  0  0  0
   -7.1611   -1.3061    2.2141 H   0  0  0  0  0  0  0  0  0  0  0  0
  1 30  1  0  0  0  0
  2 12  1  0  0  0  0
  2 43  1  0  0  0  0
  3 23  1  0  0  0  0
  3 31  1  0  0  0  0
  4 11  1  0  0  0  0
  4 16  1  0  0  0  0
  4 42  1  0  0  0  0
  5 15  1  0  0  0  0
  5 19  1  0  0  0  0
  5 22  1  0  0  0  0
  6 16  1  0  0  0  0
  6 17  2  0  0  0  0
  7 18  1  0  0  0  0
  7 19  2  0  0  0  0
  8 16  2  0  0  0  0
  8 24  1  0  0  0  0
  9 23  2  0  0  0  0
  9 27  1  0  0  0  0
 10 11  1  0  0  0  0
 10 12  1  0  0  0  0
 10 13  1  0  0  0  0
 10 14  1  0  0  0  0
 11 32  1  0  0  0  0
 11 33  1  0  0  0  0
 12 34  1  0  0  0  0
 12 35  1  0  0  0  0
 13 36  1  0  0  0  0
 13 37  1  0  0  0  0
 13 38  1  0  0  0  0
 14 39  1  0  0  0  0
 14 40  1  0  0  0  0
 14 41  1  0  0  0  0
 15 17  1  0  0  0  0
 15 18  2  0  0  0  0
 17 21  1  0  0  0  0
 18 20  1  0  0  0  0
 19 23  1  0  0  0  0
 20 25  2  0  0  0  0
 20 26  1  0  0  0  0
 21 24  2  0  0  0  0
 21 44  1  0  0  0  0
 22 27  2  0  0  0  0
 22 45  1  0  0  0  0
 24 46  1  0  0  0  0
 25 28  1  0  0  0  0
 25 47  1  0  0  0  0
 26 29  2  0  0  0  0
 26 48  1  0  0  0  0
 27 49  1  0  0  0  0
 28 30  2  0  0  0  0
 28 50  1  0  0  0  0
 29 30  1  0  0  0  0
 29 51  1  0  0  0  0
 31 52  1  0  0  0  0
 31 53  1  0  0  0  0
 31 54  1  0  0  0  0
M  END
> <PUBCHEM_COMPOUND_CID>
49830617

> <PUBCHEM_CONFORMER_RMSD>
1

> <PUBCHEM_CONFORMER_DIVERSEORDER>
1
7
42
46
23
18
20
40
24
28
16
29
39
48
19
21
38
34
43
11
25
35
5
36
2
10
30
32
22
26
27
31
37
47
8
3
4
33
45
44
41
9
17
15
6
13
12
14

> <PUBCHEM_MMFF94_PARTIAL_CHARGES>
38
1 -0.19
11 0.37
12 0.28
15 -0.2
16 0.72
17 0.36
18 0.17
19 0.1
2 -0.68
20 0.05
21 -0.15
22 -0.18
23 0.69
24 0.16
25 -0.15
26 -0.15
27 0.02
28 -0.15
29 -0.15
3 -0.43
30 0.19
31 0.28
4 -0.87
42 0.4
43 0.4
44 0.15
45 0.15
46 0.15
47 0.15
48 0.15
49 0.15
5 0.33
50 0.15
51 0.15
6 -0.62
7 -0.57
8 -0.62
9 -0.62

> <PUBCHEM_EFFECTIVE_ROTOR_COUNT>
7

> <PUBCHEM_PHARMACOPHORE_FEATURES>
11
1 2 acceptor
1 2 donor
1 4 donor
1 6 acceptor
3 10 13 14 hydrophobe
3 5 7 19 cation
4 4 6 8 16 cation
5 5 7 15 18 19 rings
6 20 25 26 28 29 30 rings
6 5 9 19 22 23 27 rings
6 6 8 16 17 21 24 rings

> <PUBCHEM_HEAVY_ATOM_COUNT>
31

> <PUBCHEM_ATOM_DEF_STEREO_COUNT>
0

> <PUBCHEM_ATOM_UDEF_STEREO_COUNT>
0

> <PUBCHEM_BOND_DEF_STEREO_COUNT>
0

> <PUBCHEM_BOND_UDEF_STEREO_COUNT>
0

> <PUBCHEM_ISOTOPIC_ATOM_COUNT>
0

> <PUBCHEM_COMPONENT_COUNT>
1

> <PUBCHEM_CACTVS_TAUTO_COUNT>
3

> <PUBCHEM_CONFORMER_ID>
02F85AD900000001

> <PUBCHEM_MMFF94_ENERGY>
94.1351

> <PUBCHEM_FEATURE_SELFOVERLAP>
55.937

> <PUBCHEM_SHAPE_FINGERPRINT>
11552529 35 17691663994705986432
11582403 64 17131825482311631580
11607047 141 16914008836880167619
12293681 160 11167953471317888508
12422481 6 18261382304856627080
12553582 1 17532352327610471248
12633257 1 17313106388314991395
12741549 16 16980099234367454595
12788726 201 17400091153959589630
12839892 36 18336553836526703331
12925494 130 18124873465429555513
13004483 165 17050468455291587494
13140716 1 17979373168228928697
13402501 40 18338237047380147030
13540713 4 18190747428069342437
13692114 37 18269281321430846755
14020679 6 17630595924312954360
14739800 52 17560251206683335289
14840074 17 18040988588214991980
150020 26 17758925196922036658
15064986 96 18267008471485844714
15420108 30 18342446015865361071
15775530 1 17467611725040008684
16110190 28 18115301298071683400
16994733 274 15985112920494174489
17913733 40 18201726137181596643
1813 80 16877660158653955868
1979834 28 18408611357011987251
20505436 4 17174079881850435220
20554085 129 18131081462677247241
21033648 29 18130217281261122466
22149856 69 18125191371241381259
22182313 1 17825101511457299213
23419403 2 17903910059302103845
23559900 14 18116730512900483335
23728640 28 18122900104034514114
3411729 13 18341050705581508139
3493558 16 17626667098520154936
465052 167 17386015013138171497
5104073 3 18196390130485933641
5171179 24 17689699879769379405
5265222 85 18339370776970087948
5385378 56 18271535199585697187

> <PUBCHEM_SHAPE_MULTIPOLES>
589.07
11.74
4.72
2.27
3.04
5.9
-0.35
-6.74
11.13
-3.04
-1.74
-1.45
-1.11
1.42

> <PUBCHEM_SHAPE_SELFOVERLAP>
1288.177

> <PUBCHEM_SHAPE_VOLUME>
322.8

> <PUBCHEM_COORDINATE_TYPE>
2
5
10

$$$$
