22907281
  -OEChem-10062121583D

 65 70  0     0  0  0  0  0  0999 V2000
   -0.4382   -4.0302   -0.6091 O   0  0  0  0  0  0  0  0  0  0  0  0
   -4.5109   -2.3699   -1.8791 O   0  0  0  0  0  0  0  0  0  0  0  0
    5.5696   -0.0047   -0.8562 N   0  0  0  0  0  0  0  0  0  0  0  0
    1.6322   -0.4109    0.7944 N   0  0  0  0  0  0  0  0  0  0  0  0
   -2.5663   -3.5479   -1.4050 N   0  0  0  0  0  0  0  0  0  0  0  0
   -4.5943    1.5241    0.1653 N   0  0  0  0  0  0  0  0  0  0  0  0
    3.0474   -0.0650    0.6249 C   0  0  0  0  0  0  0  0  0  0  0  0
    3.2862    0.9001   -0.5454 C   0  0  0  0  0  0  0  0  0  0  0  0
    3.9479   -1.3020    0.4915 C   0  0  0  0  0  0  0  0  0  0  0  0
    4.7752    1.2216   -0.6959 C   0  0  0  0  0  0  0  0  0  0  0  0
    5.4117   -0.8967    0.3012 C   0  0  0  0  0  0  0  0  0  0  0  0
    6.9806    0.3242   -1.0586 C   0  0  0  0  0  0  0  0  0  0  0  0
    0.8641   -0.1200    1.8993 C   0  0  0  0  0  0  0  0  0  0  0  0
    0.8836   -1.0754   -0.1396 C   0  0  0  0  0  0  0  0  0  0  0  0
   -0.3892   -1.2200    0.3628 C   0  0  0  0  0  0  0  0  0  0  0  0
   -0.4163   -0.6199    1.6528 C   0  0  0  0  0  0  0  0  0  0  0  0
    7.4172    1.4080   -0.0769 C   0  0  0  0  0  0  0  0  0  0  0  0
    7.1959    0.7722   -2.5007 C   0  0  0  0  0  0  0  0  0  0  0  0
   -1.4604   -1.8671   -0.3289 C   0  0  0  0  0  0  0  0  0  0  0  0
    1.2015    0.5407    3.0859 C   0  0  0  0  0  0  0  0  0  0  0  0
   -1.4105   -0.4535    2.6373 C   0  0  0  0  0  0  0  0  0  0  0  0
   -2.6531   -1.3757   -0.7123 C   0  0  0  0  0  0  0  0  0  0  0  0
    0.1991    0.6939    4.0480 C   0  0  0  0  0  0  0  0  0  0  0  0
   -1.3863   -3.2816   -0.7760 C   0  0  0  0  0  0  0  0  0  0  0  0
   -1.0875    0.2053    3.8292 C   0  0  0  0  0  0  0  0  0  0  0  0
   -3.2092   -0.0741   -0.5089 C   0  0  0  0  0  0  0  0  0  0  0  0
   -3.3883   -2.4602   -1.4118 C   0  0  0  0  0  0  0  0  0  0  0  0
   -2.6927    1.1768   -0.9485 C   0  0  0  0  0  0  0  0  0  0  0  0
   -4.3787    0.1721    0.1730 C   0  0  0  0  0  0  0  0  0  0  0  0
   -3.5804    2.1628   -0.5125 C   0  0  0  0  0  0  0  0  0  0  0  0
   -1.5517    1.5662   -1.6778 C   0  0  0  0  0  0  0  0  0  0  0  0
   -3.3832    3.5241   -0.7703 C   0  0  0  0  0  0  0  0  0  0  0  0
   -5.7290    2.1720    0.7869 C   0  0  0  0  0  0  0  0  0  0  0  0
   -1.3415    2.9242   -1.9433 C   0  0  0  0  0  0  0  0  0  0  0  0
   -2.2446    3.8864   -1.4955 C   0  0  0  0  0  0  0  0  0  0  0  0
    3.3576    0.4570    1.5367 H   0  0  0  0  0  0  0  0  0  0  0  0
    2.9152    0.4667   -1.4833 H   0  0  0  0  0  0  0  0  0  0  0  0
    2.7222    1.8279   -0.3870 H   0  0  0  0  0  0  0  0  0  0  0  0
    3.8540   -1.9331    1.3839 H   0  0  0  0  0  0  0  0  0  0  0  0
    3.6314   -1.9176   -0.3605 H   0  0  0  0  0  0  0  0  0  0  0  0
    4.8761    1.8807   -1.5647 H   0  0  0  0  0  0  0  0  0  0  0  0
    5.0487    1.7963    0.1970 H   0  0  0  0  0  0  0  0  0  0  0  0
    5.7718   -0.4381    1.2295 H   0  0  0  0  0  0  0  0  0  0  0  0
    5.9938   -1.8136    0.1464 H   0  0  0  0  0  0  0  0  0  0  0  0
    7.5990   -0.5702   -0.9079 H   0  0  0  0  0  0  0  0  0  0  0  0
    1.3126   -1.3894   -1.0824 H   0  0  0  0  0  0  0  0  0  0  0  0
    7.0346    2.4044   -0.3248 H   0  0  0  0  0  0  0  0  0  0  0  0
    7.1803    1.1788    0.9662 H   0  0  0  0  0  0  0  0  0  0  0  0
    8.5103    1.4990   -0.1205 H   0  0  0  0  0  0  0  0  0  0  0  0
    6.8282    0.0184   -3.2062 H   0  0  0  0  0  0  0  0  0  0  0  0
    8.2661    0.9059   -2.6959 H   0  0  0  0  0  0  0  0  0  0  0  0
    6.7073    1.7234   -2.7337 H   0  0  0  0  0  0  0  0  0  0  0  0
    2.1958    0.9282    3.2761 H   0  0  0  0  0  0  0  0  0  0  0  0
   -2.4169   -0.8343    2.4909 H   0  0  0  0  0  0  0  0  0  0  0  0
    0.4279    1.2022    4.9812 H   0  0  0  0  0  0  0  0  0  0  0  0
   -1.8498    0.3349    4.5929 H   0  0  0  0  0  0  0  0  0  0  0  0
   -2.8034   -4.4437   -1.8159 H   0  0  0  0  0  0  0  0  0  0  0  0
   -5.0714   -0.5005    0.6625 H   0  0  0  0  0  0  0  0  0  0  0  0
   -0.8396    0.8321   -2.0432 H   0  0  0  0  0  0  0  0  0  0  0  0
   -4.0823    4.2781   -0.4246 H   0  0  0  0  0  0  0  0  0  0  0  0
   -6.3728    1.4206    1.2510 H   0  0  0  0  0  0  0  0  0  0  0  0
   -6.2851    2.7093    0.0145 H   0  0  0  0  0  0  0  0  0  0  0  0
   -5.3572    2.8620    1.5487 H   0  0  0  0  0  0  0  0  0  0  0  0
   -0.4639    3.2300   -2.5067 H   0  0  0  0  0  0  0  0  0  0  0  0
   -2.0619    4.9357   -1.7132 H   0  0  0  0  0  0  0  0  0  0  0  0
  1 24  2  0  0  0  0
  2 27  2  0  0  0  0
  3 10  1  0  0  0  0
  3 11  1  0  0  0  0
  3 12  1  0  0  0  0
  4  7  1  0  0  0  0
  4 13  1  0  0  0  0
  4 14  1  0  0  0  0
  5 24  1  0  0  0  0
  5 27  1  0  0  0  0
  5 57  1  0  0  0  0
  6 29  1  0  0  0  0
  6 30  1  0  0  0  0
  6 33  1  0  0  0  0
  7  8  1  0  0  0  0
  7  9  1  0  0  0  0
  7 36  1  0  0  0  0
  8 10  1  0  0  0  0
  8 37  1  0  0  0  0
  8 38  1  0  0  0  0
  9 11  1  0  0  0  0
  9 39  1  0  0  0  0
  9 40  1  0  0  0  0
 10 41  1  0  0  0  0
 10 42  1  0  0  0  0
 11 43  1  0  0  0  0
 11 44  1  0  0  0  0
 12 17  1  0  0  0  0
 12 18  1  0  0  0  0
 12 45  1  0  0  0  0
 13 16  1  0  0  0  0
 13 20  2  0  0  0  0
 14 15  2  0  0  0  0
 14 46  1  0  0  0  0
 15 16  1  0  0  0  0
 15 19  1  0  0  0  0
 16 21  2  0  0  0  0
 17 47  1  0  0  0  0
 17 48  1  0  0  0  0
 17 49  1  0  0  0  0
 18 50  1  0  0  0  0
 18 51  1  0  0  0  0
 18 52  1  0  0  0  0
 19 22  2  0  0  0  0
 19 24  1  0  0  0  0
 20 23  1  0  0  0  0
 20 53  1  0  0  0  0
 21 25  1  0  0  0  0
 21 54  1  0  0  0  0
 22 26  1  0  0  0  0
 22 27  1  0  0  0  0
 23 25  2  0  0  0  0
 23 55  1  0  0  0  0
 25 56  1  0  0  0  0
 26 28  1  0  0  0  0
 26 29  2  0  0  0  0
 28 30  1  0  0  0  0
 28 31  2  0  0  0  0
 29 58  1  0  0  0  0
 30 32  2  0  0  0  0
 31 34  1  0  0  0  0
 31 59  1  0  0  0  0
 32 35  1  0  0  0  0
 32 60  1  0  0  0  0
 33 61  1  0  0  0  0
 33 62  1  0  0  0  0
 33 63  1  0  0  0  0
 34 35  2  0  0  0  0
 34 64  1  0  0  0  0
 35 65  1  0  0  0  0
M  END
> <PUBCHEM_COMPOUND_CID>
22907281

> <PUBCHEM_CONFORMER_RMSD>
0.8

> <PUBCHEM_CONFORMER_DIVERSEORDER>
1
21
52
152
113
138
23
124
60
82
68
29
20
114
27
87
142
148
32
112
38
69
50
42
57
122
115
123
45
5
49
76
80
79
108
56
86
136
89
93
134
46
85
74
71
146
55
130
121
28
40
41
90
8
63
125
84
59
62
105
133
132
39
103
67
44
34
15
151
3
127
135
7
31
107
128
73
95
153
53
6
110
61
4
145
94
98
58
109
25
119
22
51
100
18
143
101
137
150
149
88
81
144
111
47
12
126
92
78
118
116
17
91
106
9
96
70
139
33
120
2
72
43
36
14
64
99
54
66
83
147
77
10
102
141
19
131
97
26
37
154
24
104
13
140
129
30
11
16
48
75
35
65
117

> <PUBCHEM_MMFF94_PARTIAL_CHARGES>
40
1 -0.57
10 0.27
11 0.27
12 0.27
13 -0.15
14 -0.3
15 -0.05
19 0.06
2 -0.57
20 -0.15
21 -0.15
22 0.06
23 -0.15
24 0.62
25 -0.15
26 -0.05
27 0.62
29 -0.3
3 -0.81
30 -0.15
31 -0.15
32 -0.15
33 0.26
34 -0.15
35 -0.15
4 0.05
46 0.15
5 -0.49
53 0.15
54 0.15
55 0.15
56 0.15
57 0.37
58 0.15
59 0.15
6 0.05
60 0.15
64 0.15
65 0.15
7 0.26

> <PUBCHEM_EFFECTIVE_ROTOR_COUNT>
5.4

> <PUBCHEM_PHARMACOPHORE_FEATURES>
13
1 1 acceptor
1 2 acceptor
1 3 cation
1 4 cation
1 5 donor
1 6 cation
3 12 17 18 hydrophobe
5 4 13 14 15 16 rings
5 5 19 22 24 27 rings
5 6 26 28 29 30 rings
6 13 16 20 21 23 25 rings
6 28 30 31 32 34 35 rings
6 3 7 8 9 10 11 rings

> <PUBCHEM_HEAVY_ATOM_COUNT>
35

> <PUBCHEM_ATOM_DEF_STEREO_COUNT>
0

> <PUBCHEM_ATOM_UDEF_STEREO_COUNT>
0

> <PUBCHEM_BOND_DEF_STEREO_COUNT>
0

> <PUBCHEM_BOND_UDEF_STEREO_COUNT>
0

> <PUBCHEM_ISOTOPIC_ATOM_COUNT>
0

> <PUBCHEM_COMPONENT_COUNT>
1

> <PUBCHEM_CACTVS_TAUTO_COUNT>
3

> <PUBCHEM_CONFORMER_ID>
015D899100000001

> <PUBCHEM_MMFF94_ENERGY>
69.0514

> <PUBCHEM_FEATURE_SELFOVERLAP>
66.157

> <PUBCHEM_SHAPE_FINGERPRINT>
10165383 225 18201436914379328241
131258 43 17838051864188204247
13690498 29 17844803891969786462
13782708 43 17559665320940161599
14114206 34 17130979859349530913
14279260 333 17386842800056193266
14713325 29 18334017198455590163
14840074 17 18186798050837517837
14910302 57 18058432378353682050
14955137 171 18119807174121729511
15021287 119 17244115165162701330
15297060 5 18343579621613146813
15575132 122 18042116579671012989
15968369 153 18042985339938928972
19958102 18 18343015588948698358
21033650 10 18410006663475172296
21756936 100 17603867801642636120
21792965 68 16298378081631561052
23536364 44 17561368391421038442
3610482 184 17967828154091773396
392239 28 16806189686809122977
44802255 64 18336844043156512038
484985 159 16917080974503286495
497634 4 17916881217672397276
5252454 2 18128520584511464809
5265222 85 18271527593288676302
531348 171 18336266761108103414
57527293 21 18044935668014029489
57527306 92 17821727248005779605
6608658 132 18187074070530347540
7288768 16 16660650613435927312

> <PUBCHEM_SHAPE_MULTIPOLES>
688.62
13.65
3.9
3.07
28.36
0.44
3.94
7.17
-7.02
-5.54
-3.09
-0.43
-0.51
-1.76

> <PUBCHEM_SHAPE_SELFOVERLAP>
1538.911

> <PUBCHEM_SHAPE_VOLUME>
369.4

> <PUBCHEM_COORDINATE_TYPE>
2
5
10

$$$$
