49830928
  -OEChem-10052115183D

 41 43  0     0  0  0  0  0  0999 V2000
   -1.6084   -3.3913    0.0023 O   0  0  0  0  0  0  0  0  0  0  0  0
    3.9449   -0.5412   -0.0192 O   0  0  0  0  0  0  0  0  0  0  0  0
   -0.1673   -1.6450   -0.0056 N   0  0  0  0  0  0  0  0  0  0  0  0
    1.1175   -1.2094   -0.0107 N   0  0  0  0  0  0  0  0  0  0  0  0
   -2.4070   -0.6800    0.0008 N   0  0  0  0  0  0  0  0  0  0  0  0
    2.1222    0.9509   -0.0139 N   0  0  0  0  0  0  0  0  0  0  0  0
   -0.3141    0.5657   -0.0059 C   0  0  0  0  0  0  0  0  0  0  0  0
   -1.0652   -0.5953   -0.0032 C   0  0  0  0  0  0  0  0  0  0  0  0
    1.0169    0.1209   -0.0101 C   0  0  0  0  0  0  0  0  0  0  0  0
   -0.9968    1.7854   -0.0044 C   0  0  0  0  0  0  0  0  0  0  0  0
   -2.3995    1.7507   -0.0003 C   0  0  0  0  0  0  0  0  0  0  0  0
   -3.0533    0.4956    0.0022 C   0  0  0  0  0  0  0  0  0  0  0  0
   -0.4454   -3.0147   -0.0033 C   0  0  0  0  0  0  0  0  0  0  0  0
    4.3879    1.8286    0.0084 C   0  0  0  0  0  0  0  0  0  0  0  0
    3.4899    0.5977   -0.0181 C   0  0  0  0  0  0  0  0  0  0  0  0
   -3.1470    2.9398    0.0012 C   0  0  0  0  0  0  0  0  0  0  0  0
    0.7514   -3.9190   -0.0072 C   0  0  0  0  0  0  0  0  0  0  0  0
    5.8806    1.5061    0.0050 C   0  0  0  0  0  0  0  0  0  0  0  0
   -4.4441    0.4897    0.0061 C   0  0  0  0  0  0  0  0  0  0  0  0
   -4.5380    2.9003    0.0050 C   0  0  0  0  0  0  0  0  0  0  0  0
   -5.1872    1.6731    0.0076 C   0  0  0  0  0  0  0  0  0  0  0  0
    6.7481    2.7569    0.0314 C   0  0  0  0  0  0  0  0  0  0  0  0
    0.3139   -5.3657    0.0320 C   0  0  0  0  0  0  0  0  0  0  0  0
   -0.4545    2.7266   -0.0066 H   0  0  0  0  0  0  0  0  0  0  0  0
    1.9049    1.9449   -0.0113 H   0  0  0  0  0  0  0  0  0  0  0  0
    4.1376    2.4085    0.9051 H   0  0  0  0  0  0  0  0  0  0  0  0
    4.1414    2.4439   -0.8654 H   0  0  0  0  0  0  0  0  0  0  0  0
   -2.6493    3.9073   -0.0007 H   0  0  0  0  0  0  0  0  0  0  0  0
    1.3384   -3.7439   -0.9152 H   0  0  0  0  0  0  0  0  0  0  0  0
    1.3720   -3.7103    0.8710 H   0  0  0  0  0  0  0  0  0  0  0  0
    6.1284    0.9161   -0.8856 H   0  0  0  0  0  0  0  0  0  0  0  0
    6.1252    0.8817    0.8726 H   0  0  0  0  0  0  0  0  0  0  0  0
   -4.9811   -0.4576    0.0081 H   0  0  0  0  0  0  0  0  0  0  0  0
   -5.1108    3.8225    0.0061 H   0  0  0  0  0  0  0  0  0  0  0  0
   -6.2725    1.6311    0.0106 H   0  0  0  0  0  0  0  0  0  0  0  0
    6.5549    3.3847   -0.8442 H   0  0  0  0  0  0  0  0  0  0  0  0
    7.8079    2.4838    0.0281 H   0  0  0  0  0  0  0  0  0  0  0  0
    6.5514    3.3497    0.9303 H   0  0  0  0  0  0  0  0  0  0  0  0
   -0.2726   -5.5804    0.9319 H   0  0  0  0  0  0  0  0  0  0  0  0
    1.1865   -6.0267    0.0323 H   0  0  0  0  0  0  0  0  0  0  0  0
   -0.3013   -5.6197   -0.8380 H   0  0  0  0  0  0  0  0  0  0  0  0
  1 13  2  0  0  0  0
  2 15  2  0  0  0  0
  3  4  1  0  0  0  0
  3  8  1  0  0  0  0
  3 13  1  0  0  0  0
  4  9  2  0  0  0  0
  5  8  2  0  0  0  0
  5 12  1  0  0  0  0
  6  9  1  0  0  0  0
  6 15  1  0  0  0  0
  6 25  1  0  0  0  0
  7  8  1  0  0  0  0
  7  9  1  0  0  0  0
  7 10  2  0  0  0  0
 10 11  1  0  0  0  0
 10 24  1  0  0  0  0
 11 12  1  0  0  0  0
 11 16  2  0  0  0  0
 12 19  2  0  0  0  0
 13 17  1  0  0  0  0
 14 15  1  0  0  0  0
 14 18  1  0  0  0  0
 14 26  1  0  0  0  0
 14 27  1  0  0  0  0
 16 20  1  0  0  0  0
 16 28  1  0  0  0  0
 17 23  1  0  0  0  0
 17 29  1  0  0  0  0
 17 30  1  0  0  0  0
 18 22  1  0  0  0  0
 18 31  1  0  0  0  0
 18 32  1  0  0  0  0
 19 21  1  0  0  0  0
 19 33  1  0  0  0  0
 20 21  2  0  0  0  0
 20 34  1  0  0  0  0
 21 35  1  0  0  0  0
 22 36  1  0  0  0  0
 22 37  1  0  0  0  0
 22 38  1  0  0  0  0
 23 39  1  0  0  0  0
 23 40  1  0  0  0  0
 23 41  1  0  0  0  0
M  END
> <PUBCHEM_COMPOUND_CID>
49830928

> <PUBCHEM_CONFORMER_RMSD>
0.8

> <PUBCHEM_CONFORMER_DIVERSEORDER>
1
31
18
9
40
20
28
37
39
22
19
15
6
17
38
35
36
10
33
8
26
41
27
32
14
23
12
34
30
29
11
3
5
24
7
4
25
21
16
2
13

> <PUBCHEM_MMFF94_PARTIAL_CHARGES>
24
1 -0.57
10 -0.15
12 0.31
13 0.52
14 0.06
15 0.57
16 -0.15
17 0.06
19 -0.15
2 -0.57
20 -0.15
21 -0.15
24 0.15
25 0.37
28 0.15
3 0.56
33 0.15
34 0.15
35 0.15
4 -0.71
5 -0.57
6 -0.49
8 0.11
9 0.35

> <PUBCHEM_EFFECTIVE_ROTOR_COUNT>
6

> <PUBCHEM_PHARMACOPHORE_FEATURES>
8
1 1 acceptor
1 2 acceptor
1 22 hydrophobe
1 23 hydrophobe
1 6 donor
5 3 4 7 8 9 rings
6 11 12 16 19 20 21 rings
6 5 7 8 10 11 12 rings

> <PUBCHEM_HEAVY_ATOM_COUNT>
23

> <PUBCHEM_ATOM_DEF_STEREO_COUNT>
0

> <PUBCHEM_ATOM_UDEF_STEREO_COUNT>
0

> <PUBCHEM_BOND_DEF_STEREO_COUNT>
0

> <PUBCHEM_BOND_UDEF_STEREO_COUNT>
0

> <PUBCHEM_ISOTOPIC_ATOM_COUNT>
0

> <PUBCHEM_COMPONENT_COUNT>
1

> <PUBCHEM_CACTVS_TAUTO_COUNT>
3

> <PUBCHEM_CONFORMER_ID>
02F85C1000000001

> <PUBCHEM_MMFF94_ENERGY>
47.0785

> <PUBCHEM_FEATURE_SELFOVERLAP>
40.737

> <PUBCHEM_SHAPE_FINGERPRINT>
10319926 262 18126267866044797104
10411042 1 17473826602857924806
10493431 412 18409730672623532941
11056379 131 18121791792514250662
12173636 292 18410571816361843604
12293681 160 17917714591203583488
12390115 104 18270977781360943864
12788726 201 18048023370852284666
13140716 1 18263927635514851155
138480 1 17617941327008253735
13955234 65 18049167670272000451
14508225 48 17622434369627285607
14790565 3 18410858728857451544
14844126 61 18119528997025456594
15042514 8 18048884283739599539
15196674 1 18410856525312193420
15230672 131 18409170996796239766
15664445 248 17409378273360457991
15927050 60 18412262839829928966
16087824 20 18267021855585828471
17539 30 17982446306695588862
18785283 64 18120088377681699922
19427546 20 18048322434062697252
19591789 44 18411419496940735915
20101258 96 17688881147528426994
20554085 129 18129359562822062680
21033648 29 18342450474178980400
221490 88 17976550412352709939
22950370 63 9295280664453211832
23366157 5 17899705552765689795
23557571 272 18055925531119531252
23558518 356 17828482810466051904
23559900 14 17761486998547270259
283562 15 18340767143636053571
3091708 16 9193814411247719531
4073 2 18263927808542625120
4409770 3 18191864746088630823
5104073 3 18261397689298028825
59755656 520 18408599280070444148
6058803 2 17841142261273537601
6138700 20 18051418362417250462
6327066 14 18407754837370229461
633830 44 18200028430703324348
6669772 16 18343308028902919750
6700243 42 17333414519063272892
7364860 26 17979072682962068183
77188 2 17113538675622914662
7808743 9 18337668719790041616
9981440 41 18408045104344760265

> <PUBCHEM_SHAPE_MULTIPOLES>
441.67
11.29
5.56
0.59
13.71
9.42
0
-16.24
-0.07
0.4
-0.05
-0.01
-0.03
0.02

> <PUBCHEM_SHAPE_SELFOVERLAP>
956.314

> <PUBCHEM_SHAPE_VOLUME>
243.3

> <PUBCHEM_COORDINATE_TYPE>
2
5
10

$$$$
