11494558
  -OEChem-10062121573D

 45 48  0     0  0  0  0  0  0999 V2000
    5.9847    2.2938   -1.0067 F   0  0  0  0  0  0  0  0  0  0  0  0
    2.4257   -0.9262    0.5582 O   0  0  0  0  0  0  0  0  0  0  0  0
   -6.7452   -0.9796   -1.1647 N   0  0  0  0  0  0  0  0  0  0  0  0
   -5.8524   -1.1565   -2.1534 N   0  0  0  0  0  0  0  0  0  0  0  0
   -5.9819    0.3984    2.1672 N   0  0  0  0  0  0  0  0  0  0  0  0
    1.4708    1.0991   -0.1317 N   0  0  0  0  0  0  0  0  0  0  0  0
   -3.5105   -0.7099   -2.2591 N   0  0  0  0  0  0  0  0  0  0  0  0
    3.7613    0.8206   -0.2378 N   0  0  0  0  0  0  0  0  0  0  0  0
   -4.8632   -0.2689   -0.2899 C   0  0  0  0  0  0  0  0  0  0  0  0
   -4.0364    0.2662    0.7029 C   0  0  0  0  0  0  0  0  0  0  0  0
   -2.6288    0.4788    0.4888 C   0  0  0  0  0  0  0  0  0  0  0  0
   -6.2145   -0.4508   -0.0209 C   0  0  0  0  0  0  0  0  0  0  0  0
   -4.7088   -0.7229   -1.6172 C   0  0  0  0  0  0  0  0  0  0  0  0
   -1.7096   -0.5310    0.7912 C   0  0  0  0  0  0  0  0  0  0  0  0
   -2.1696    1.6970   -0.0223 C   0  0  0  0  0  0  0  0  0  0  0  0
   -4.6643    0.5754    1.9037 C   0  0  0  0  0  0  0  0  0  0  0  0
    0.1064    0.8924    0.0748 C   0  0  0  0  0  0  0  0  0  0  0  0
   -6.7781   -0.1201    1.2018 C   0  0  0  0  0  0  0  0  0  0  0  0
   -0.3456   -0.3246    0.5849 C   0  0  0  0  0  0  0  0  0  0  0  0
   -0.8056    1.9032   -0.2288 C   0  0  0  0  0  0  0  0  0  0  0  0
    5.0652    0.2783   -0.1506 C   0  0  0  0  0  0  0  0  0  0  0  0
    6.5150   -1.5471    0.4167 C   0  0  0  0  0  0  0  0  0  0  0  0
    2.5460    0.2096    0.1102 C   0  0  0  0  0  0  0  0  0  0  0  0
    5.2303   -1.0108    0.3287 C   0  0  0  0  0  0  0  0  0  0  0  0
    6.1487    1.0462   -0.5441 C   0  0  0  0  0  0  0  0  0  0  0  0
    7.6165   -0.7867    0.0244 C   0  0  0  0  0  0  0  0  0  0  0  0
    7.4333    0.5100   -0.4561 C   0  0  0  0  0  0  0  0  0  0  0  0
    6.7105   -2.9339    0.9298 C   0  0  0  0  0  0  0  0  0  0  0  0
   -2.0457   -1.4861    1.1891 H   0  0  0  0  0  0  0  0  0  0  0  0
   -2.8665    2.4961   -0.2650 H   0  0  0  0  0  0  0  0  0  0  0  0
   -4.1020    0.9958    2.7342 H   0  0  0  0  0  0  0  0  0  0  0  0
   -7.7075   -1.2424   -1.3371 H   0  0  0  0  0  0  0  0  0  0  0  0
   -7.8258   -0.2517    1.4361 H   0  0  0  0  0  0  0  0  0  0  0  0
    0.2951   -1.1552    0.8441 H   0  0  0  0  0  0  0  0  0  0  0  0
   -0.4674    2.8564   -0.6271 H   0  0  0  0  0  0  0  0  0  0  0  0
    1.7230    2.0106   -0.5057 H   0  0  0  0  0  0  0  0  0  0  0  0
   -2.6432   -0.3811   -1.8527 H   0  0  0  0  0  0  0  0  0  0  0  0
   -3.4241   -1.0422   -3.2149 H   0  0  0  0  0  0  0  0  0  0  0  0
    4.4253   -1.6557    0.6475 H   0  0  0  0  0  0  0  0  0  0  0  0
    3.7097    1.7705   -0.5975 H   0  0  0  0  0  0  0  0  0  0  0  0
    8.6230   -1.1918    0.0859 H   0  0  0  0  0  0  0  0  0  0  0  0
    8.2907    1.1023   -0.7618 H   0  0  0  0  0  0  0  0  0  0  0  0
    7.7613   -3.1348    1.1645 H   0  0  0  0  0  0  0  0  0  0  0  0
    6.3833   -3.6620    0.1806 H   0  0  0  0  0  0  0  0  0  0  0  0
    6.1381   -3.0881    1.8507 H   0  0  0  0  0  0  0  0  0  0  0  0
  1 25  1  0  0  0  0
  2 23  2  0  0  0  0
  3  4  1  0  0  0  0
  3 12  1  0  0  0  0
  3 32  1  0  0  0  0
  4 13  2  0  0  0  0
  5 16  1  0  0  0  0
  5 18  2  0  0  0  0
  6 17  1  0  0  0  0
  6 23  1  0  0  0  0
  6 36  1  0  0  0  0
  7 13  1  0  0  0  0
  7 37  1  0  0  0  0
  7 38  1  0  0  0  0
  8 21  1  0  0  0  0
  8 23  1  0  0  0  0
  8 40  1  0  0  0  0
  9 10  1  0  0  0  0
  9 12  2  0  0  0  0
  9 13  1  0  0  0  0
 10 11  1  0  0  0  0
 10 16  2  0  0  0  0
 11 14  2  0  0  0  0
 11 15  1  0  0  0  0
 12 18  1  0  0  0  0
 14 19  1  0  0  0  0
 14 29  1  0  0  0  0
 15 20  2  0  0  0  0
 15 30  1  0  0  0  0
 16 31  1  0  0  0  0
 17 19  2  0  0  0  0
 17 20  1  0  0  0  0
 18 33  1  0  0  0  0
 19 34  1  0  0  0  0
 20 35  1  0  0  0  0
 21 24  1  0  0  0  0
 21 25  2  0  0  0  0
 22 24  2  0  0  0  0
 22 26  1  0  0  0  0
 22 28  1  0  0  0  0
 24 39  1  0  0  0  0
 25 27  1  0  0  0  0
 26 27  2  0  0  0  0
 26 41  1  0  0  0  0
 27 42  1  0  0  0  0
 28 43  1  0  0  0  0
 28 44  1  0  0  0  0
 28 45  1  0  0  0  0
M  END
> <PUBCHEM_COMPOUND_CID>
11494558

> <PUBCHEM_CONFORMER_RMSD>
0.8

> <PUBCHEM_CONFORMER_DIVERSEORDER>
1
9
10
8
16
13
5
15
7
6
14
11
2
12
4
3

> <PUBCHEM_MMFF94_PARTIAL_CHARGES>
39
1 -0.19
12 -0.15
13 0.37
14 -0.15
15 -0.15
16 0.16
17 0.12
18 0.16
19 -0.15
2 -0.57
20 -0.15
21 0.12
22 -0.14
23 0.69
24 -0.15
25 0.19
26 -0.15
27 -0.15
28 0.14
29 0.15
3 0.3
30 0.15
31 0.15
32 0.27
33 0.15
34 0.15
35 0.15
36 0.37
37 0.4
38 0.4
39 0.15
4 -0.71
40 0.37
41 0.15
42 0.15
5 -0.62
6 -0.55
7 -0.88
8 -0.55

> <PUBCHEM_EFFECTIVE_ROTOR_COUNT>
5

> <PUBCHEM_PHARMACOPHORE_FEATURES>
11
1 2 acceptor
1 3 donor
1 5 acceptor
1 6 donor
1 7 donor
1 8 donor
3 4 7 13 cation
5 3 4 9 12 13 rings
6 11 14 15 17 19 20 rings
6 21 22 24 25 26 27 rings
6 5 9 10 12 16 18 rings

> <PUBCHEM_HEAVY_ATOM_COUNT>
28

> <PUBCHEM_ATOM_DEF_STEREO_COUNT>
0

> <PUBCHEM_ATOM_UDEF_STEREO_COUNT>
0

> <PUBCHEM_BOND_DEF_STEREO_COUNT>
0

> <PUBCHEM_BOND_UDEF_STEREO_COUNT>
0

> <PUBCHEM_ISOTOPIC_ATOM_COUNT>
0

> <PUBCHEM_COMPONENT_COUNT>
1

> <PUBCHEM_CACTVS_TAUTO_COUNT>
27

> <PUBCHEM_CONFORMER_ID>
00AF649E00000001

> <PUBCHEM_MMFF94_ENERGY>
83.9397

> <PUBCHEM_FEATURE_SELFOVERLAP>
55.968

> <PUBCHEM_SHAPE_FINGERPRINT>
10 15 14117511043929186266
10299344 5 18131635586414489050
10319926 262 16128649765037198507
11135926 11 18186801361766835443
11315181 36 17632859746319991865
11524674 6 15052012381534407949
11991303 11 17313395572817073362
12082328 90 18113337497163080045
12166972 35 18187088351803469748
12236239 1 18131070454797178929
12516196 113 18202282503024278808
13533116 47 18408323272919254770
13668630 136 17530969081061669115
13782708 43 18410852123539901120
14068700 675 17775566454972957616
14118638 360 14562521869633251737
14251764 18 18273216404662617210
14840074 17 18411135844310059575
14849402 71 17703224152291362448
14856354 85 17346882269282609669
15021287 119 18272377490265794649
15119646 104 18342739590060460310
15183329 4 18409445891012588682
15198563 99 17385998417131723284
15326921 28 16985762900952174409
15352257 5 16630532817177414470
15419008 47 16660641877493689876
15419008 91 16443619216073273644
15716309 27 18342178855835000857
1577012 14 18273218594995841320
15849732 13 16660366999707875686
17093844 174 14908178643124095091
20157964 124 18259707818316494964
21267235 1 18261120630364816664
21315759 40 18131072619523805008
21792961 116 16877939421336971313
22061861 79 17676204654728475854
23035841 295 17775286075217531901
23081809 10 18344149193841778936
23516275 137 17487646085429870494
23522609 53 18057068923991262976
23559900 14 18115307911408923792
23569943 247 18339073774858869339
23576562 1 17241605212339933335
24771750 20 16810134927623848532
34797466 226 16371018425116195708
397830 11 14620214404172824778
4325135 7 18201721751882700700
44880568 143 15936410035123677055
54039377 194 18200029690178976351
58260988 114 18192160494138647459
5969126 39 18334571322309409621
9831232 110 17416701150551804918
9953998 17 15913330191615483419

> <PUBCHEM_SHAPE_MULTIPOLES>
533.2
24.46
1.78
1.52
19.78
0.21
0.33
7.52
0.98
3.5
0.04
-3.84
0.34
-2.48

> <PUBCHEM_SHAPE_SELFOVERLAP>
1188.329

> <PUBCHEM_SHAPE_VOLUME>
284.6

> <PUBCHEM_COORDINATE_TYPE>
2
5
10

$$$$
