24995659
  -OEChem-10052120443D

 53 55  0     1  0  0  0  0  0999 V2000
    3.9159    3.0968    1.3227 F   0  0  0  0  0  0  0  0  0  0  0  0
    4.0051    0.9322    1.4268 F   0  0  0  0  0  0  0  0  0  0  0  0
    4.2594    1.9375   -0.4846 F   0  0  0  0  0  0  0  0  0  0  0  0
    3.1775   -0.1182   -1.5393 O   0  0  0  0  0  0  0  0  0  0  0  0
   -2.0027    1.6746   -0.2837 N   0  0  0  0  0  0  0  0  0  0  0  0
   -4.7620    1.5281   -0.9915 N   0  0  0  0  0  0  0  0  0  0  0  0
    0.1504    0.7106   -0.4827 N   0  0  0  0  0  0  0  0  0  0  0  0
    2.1237   -4.0882   -0.6222 N   0  0  0  0  0  0  0  0  0  0  0  0
    2.8098   -2.6009   -2.3361 N   0  0  0  0  0  0  0  0  0  0  0  0
   -4.1836    0.5371   -0.0776 C   0  0  2  0  0  0  0  0  0  0  0  0
   -2.6780    0.3722   -0.3344 C   0  0  0  0  0  0  0  0  0  0  0  0
   -4.9082   -0.7953   -0.2586 C   0  0  0  0  0  0  0  0  0  0  0  0
   -2.6131    2.7404   -1.0886 C   0  0  0  0  0  0  0  0  0  0  0  0
   -4.3588   -1.9155    0.6382 C   0  0  0  0  0  0  0  0  0  0  0  0
   -4.1130    2.8253   -0.8120 C   0  0  0  0  0  0  0  0  0  0  0  0
   -0.6235    1.7329   -0.0542 C   0  0  0  0  0  0  0  0  0  0  0  0
   -4.4693   -1.5804    2.1262 C   0  0  0  0  0  0  0  0  0  0  0  0
   -5.1025   -3.2207    0.3455 C   0  0  0  0  0  0  0  0  0  0  0  0
   -0.1373    2.8497    0.6064 C   0  0  0  0  0  0  0  0  0  0  0  0
    1.4753    0.8158   -0.2352 C   0  0  0  0  0  0  0  0  0  0  0  0
    1.2310    2.9220    0.8425 C   0  0  0  0  0  0  0  0  0  0  0  0
    2.0597    1.8897    0.4169 C   0  0  0  0  0  0  0  0  0  0  0  0
    2.2743   -0.3034   -0.7108 C   0  0  0  0  0  0  0  0  0  0  0  0
    3.5265    1.9626    0.6672 C   0  0  0  0  0  0  0  0  0  0  0  0
    2.0537   -1.7026   -0.2364 C   0  0  0  0  0  0  0  0  0  0  0  0
    2.3137   -2.8118   -1.0250 C   0  0  0  0  0  0  0  0  0  0  0  0
    1.5674   -1.9172    1.0485 C   0  0  0  0  0  0  0  0  0  0  0  0
    1.3587   -3.2160    1.4990 C   0  0  0  0  0  0  0  0  0  0  0  0
    1.6498   -4.2575    0.6326 C   0  0  0  0  0  0  0  0  0  0  0  0
   -4.3390    0.8963    0.9477 H   0  0  0  0  0  0  0  0  0  0  0  0
   -2.2388   -0.2695    0.4369 H   0  0  0  0  0  0  0  0  0  0  0  0
   -2.4943   -0.0970   -1.3098 H   0  0  0  0  0  0  0  0  0  0  0  0
   -5.9789   -0.6596   -0.0523 H   0  0  0  0  0  0  0  0  0  0  0  0
   -4.8356   -1.1137   -1.3079 H   0  0  0  0  0  0  0  0  0  0  0  0
   -5.7604    1.6227   -0.8062 H   0  0  0  0  0  0  0  0  0  0  0  0
   -2.4372    2.5310   -2.1518 H   0  0  0  0  0  0  0  0  0  0  0  0
   -2.1727    3.7216   -0.8786 H   0  0  0  0  0  0  0  0  0  0  0  0
   -3.3065   -2.1074    0.4016 H   0  0  0  0  0  0  0  0  0  0  0  0
   -4.2907    3.1963    0.2052 H   0  0  0  0  0  0  0  0  0  0  0  0
   -4.5647    3.5484   -1.5000 H   0  0  0  0  0  0  0  0  0  0  0  0
   -3.8204   -0.7437    2.4011 H   0  0  0  0  0  0  0  0  0  0  0  0
   -4.1645   -2.4356    2.7394 H   0  0  0  0  0  0  0  0  0  0  0  0
   -5.4978   -1.3213    2.3995 H   0  0  0  0  0  0  0  0  0  0  0  0
   -6.1703   -3.1299    0.5721 H   0  0  0  0  0  0  0  0  0  0  0  0
   -4.6984   -4.0429    0.9457 H   0  0  0  0  0  0  0  0  0  0  0  0
   -5.0017   -3.4990   -0.7091 H   0  0  0  0  0  0  0  0  0  0  0  0
   -0.7838    3.6478    0.9565 H   0  0  0  0  0  0  0  0  0  0  0  0
    1.6312    3.7876    1.3627 H   0  0  0  0  0  0  0  0  0  0  0  0
    1.3527   -1.0932    1.7232 H   0  0  0  0  0  0  0  0  0  0  0  0
    0.9824   -3.4074    2.4974 H   0  0  0  0  0  0  0  0  0  0  0  0
    1.5050   -5.2891    0.9361 H   0  0  0  0  0  0  0  0  0  0  0  0
    2.5261   -1.7649   -2.8318 H   0  0  0  0  0  0  0  0  0  0  0  0
    2.9957   -3.4307   -2.8864 H   0  0  0  0  0  0  0  0  0  0  0  0
  1 24  1  0  0  0  0
  2 24  1  0  0  0  0
  3 24  1  0  0  0  0
  4 23  2  0  0  0  0
  5 11  1  0  0  0  0
  5 13  1  0  0  0  0
  5 16  1  0  0  0  0
  6 10  1  0  0  0  0
  6 15  1  0  0  0  0
  6 35  1  0  0  0  0
  7 16  2  0  0  0  0
  7 20  1  0  0  0  0
  8 26  1  0  0  0  0
  8 29  2  0  0  0  0
  9 26  1  0  0  0  0
  9 52  1  0  0  0  0
  9 53  1  0  0  0  0
 10 11  1  0  0  0  0
 10 12  1  0  0  0  0
 10 30  1  0  0  0  0
 11 31  1  0  0  0  0
 11 32  1  0  0  0  0
 12 14  1  0  0  0  0
 12 33  1  0  0  0  0
 12 34  1  0  0  0  0
 13 15  1  0  0  0  0
 13 36  1  0  0  0  0
 13 37  1  0  0  0  0
 14 17  1  0  0  0  0
 14 18  1  0  0  0  0
 14 38  1  0  0  0  0
 15 39  1  0  0  0  0
 15 40  1  0  0  0  0
 16 19  1  0  0  0  0
 17 41  1  0  0  0  0
 17 42  1  0  0  0  0
 17 43  1  0  0  0  0
 18 44  1  0  0  0  0
 18 45  1  0  0  0  0
 18 46  1  0  0  0  0
 19 21  2  0  0  0  0
 19 47  1  0  0  0  0
 20 22  2  0  0  0  0
 20 23  1  0  0  0  0
 21 22  1  0  0  0  0
 21 48  1  0  0  0  0
 22 24  1  0  0  0  0
 23 25  1  0  0  0  0
 25 26  2  0  0  0  0
 25 27  1  0  0  0  0
 27 28  2  0  0  0  0
 27 49  1  0  0  0  0
 28 29  1  0  0  0  0
 28 50  1  0  0  0  0
 29 51  1  0  0  0  0
M  END
> <PUBCHEM_COMPOUND_CID>
24995659

> <PUBCHEM_CONFORMER_RMSD>
0.8

> <PUBCHEM_CONFORMER_DIVERSEORDER>
2
222
202
174
272
77
57
241
83
201
27
213
160
132
51
135
209
282
263
283
80
212
217
224
89
99
223
134
96
177
165
261
166
87
219
167
50
237
121
250
258
138
291
173
141
102
39
125
284
277
118
158
244
37
231
238
107
182
130
35
43
154
91
215
188
225
127
254
248
190
120
162
84
235
26
253
289
211
230
69
131
133
88
245
124
38
260
249
143
123
155
292
85
24
126
257
9
240
199
103
210
255
185
42
147
44
290
23
183
105
178
52
114
247
66
164
265
151
195
139
267
256
193
184
269
117
242
150
108
286
7
161
140
71
137
86
64
228
239
36
5
214
92
194
287
227
142
232
40
112
148
75
159
186
100
149
72
274
109
111
152
259
116
90
271
220
20
19
192
218
106
21
13
113
268
67
172
163
6
246
73
104
243
11
189
275
41
270
8
251
198
204
47
101
33
197
76
56
207
176
233
144
273
32
293
168
145
28
10
266
55
98
54
229
115
78
200
15
279
45
181
278
288
170
156
285
119
29
281
97
82
187
93
122
180
34
16
262
70
110
234
153
216
58
252
46
169
208
128
226
221
191
196
14
18
236
68
179
157
276
12
205
171
264
65
1
30
206
81
280
49
63
22
95
175
25
31
62
4
3
61
94
59
17
60
136
79
74
203
53
48
146
129

> <PUBCHEM_MMFF94_PARTIAL_CHARGES>
33
1 -0.34
10 0.27
11 0.37
13 0.37
15 0.27
16 0.41
19 -0.15
2 -0.34
20 0.4
21 -0.15
22 -0.14
23 0.4
24 1.16
25 0.09
26 0.41
27 -0.15
28 -0.15
29 0.16
3 -0.34
35 0.36
4 -0.57
47 0.15
48 0.15
49 0.15
5 -0.84
50 0.15
51 0.15
52 0.4
53 0.4
6 -0.9
7 -0.62
8 -0.62
9 -0.9

> <PUBCHEM_EFFECTIVE_ROTOR_COUNT>
7.2

> <PUBCHEM_PHARMACOPHORE_FEATURES>
11
1 4 acceptor
1 6 cation
1 6 donor
1 8 acceptor
1 9 cation
1 9 donor
3 14 17 18 hydrophobe
3 5 7 16 cation
6 5 6 10 11 13 15 rings
6 7 16 19 20 21 22 rings
6 8 25 26 27 28 29 rings

> <PUBCHEM_HEAVY_ATOM_COUNT>
29

> <PUBCHEM_ATOM_DEF_STEREO_COUNT>
1

> <PUBCHEM_ATOM_UDEF_STEREO_COUNT>
0

> <PUBCHEM_BOND_DEF_STEREO_COUNT>
0

> <PUBCHEM_BOND_UDEF_STEREO_COUNT>
0

> <PUBCHEM_ISOTOPIC_ATOM_COUNT>
0

> <PUBCHEM_COMPONENT_COUNT>
1

> <PUBCHEM_CACTVS_TAUTO_COUNT>
5

> <PUBCHEM_CONFORMER_ID>
017D674B00000002

> <PUBCHEM_MMFF94_ENERGY>
90.3859

> <PUBCHEM_FEATURE_SELFOVERLAP>
55.82

> <PUBCHEM_SHAPE_FINGERPRINT>
10074138 170 17475763912660448096
1100329 8 17832702371036683641
114674 6 18336835294033810379
11488393 25 18343032060211464482
11578080 2 17176299384290516364
11828532 37 15941485617987018403
12553582 1 17693383243611139011
12596602 18 16772683285501551787
12839892 36 18264467620309822064
12969540 37 18191864531334653694
13257819 37 18190761902035459484
13402501 40 18190745426145207835
13533116 47 18341605972519262925
13583140 156 18342171172682106933
14863182 85 18263936594795375844
17909252 39 18339375062498422058
20028762 73 17839462529138512311
20567600 347 18334007324377855106
20567600 70 18120929517283707778
20764821 26 17540274446064144419
20775438 99 18122031296965355455
21133410 32 16811288091719679194
21197605 99 17548141481672983971
21421861 104 18267297630164543384
221490 88 18411423869074693861
22393880 68 18336551529712599175
22440779 20 17249264229702533017
23559900 14 18195797475536658272
238918 7 18194966463900239954
3737641 26 18339381707271206211
4073 2 18410573977100333781
4403749 210 18049137141296976304
463206 1 17830741945751660507
484989 97 18339096947103684134
5265222 85 18193278714184931052
5309563 4 18047193240047963075
57307002 85 17822587121263239211
59755656 215 18261945358522129607
6433294 58 18409164377370538491
66674814 147 17547840215724168135
6823239 73 18268145366477517562
86090 222 18194133034276341731
9709674 26 18337667512877396357
9795274 37 18263643970194516235

> <PUBCHEM_SHAPE_MULTIPOLES>
544.21
9.97
5.7
1.49
10.6
3.41
0
1.19
0.18
-1.93
0.66
-0.57
0.6
3.05

> <PUBCHEM_SHAPE_SELFOVERLAP>
1161.973

> <PUBCHEM_SHAPE_VOLUME>
302.6

> <PUBCHEM_COORDINATE_TYPE>
2
5
10

$$$$
