25164676
  -OEChem-10062121553D

 48 52  0     0  0  0  0  0  0999 V2000
    5.5829   -0.2718    0.3382 O   0  0  0  0  0  0  0  0  0  0  0  0
   -3.7686   -0.6781   -0.9480 N   0  0  0  0  0  0  0  0  0  0  0  0
    3.0640   -3.6807    0.4599 N   0  0  0  0  0  0  0  0  0  0  0  0
    3.8026   -2.5590    0.4296 N   0  0  0  0  0  0  0  0  0  0  0  0
    3.2382   -0.2635    0.1273 N   0  0  0  0  0  0  0  0  0  0  0  0
   -3.2635   -2.4472    0.1668 N   0  0  0  0  0  0  0  0  0  0  0  0
   -4.2804   -1.6871   -0.2243 N   0  0  0  0  0  0  0  0  0  0  0  0
    1.5814   -2.1000    0.1251 C   0  0  0  0  0  0  0  0  0  0  0  0
    1.7224   -3.4741    0.2828 C   0  0  0  0  0  0  0  0  0  0  0  0
   -0.7951   -2.4290   -0.1165 C   0  0  0  0  0  0  0  0  0  0  0  0
    0.3013   -1.5585   -0.0789 C   0  0  0  0  0  0  0  0  0  0  0  0
    2.8973   -1.5995    0.2262 C   0  0  0  0  0  0  0  0  0  0  0  0
   -2.1130   -1.8954   -0.3246 C   0  0  0  0  0  0  0  0  0  0  0  0
   -0.6251   -3.8054    0.0448 C   0  0  0  0  0  0  0  0  0  0  0  0
    0.6429   -4.3595    0.2489 C   0  0  0  0  0  0  0  0  0  0  0  0
   -4.6287    0.3267   -1.5190 C   0  0  0  0  0  0  0  0  0  0  0  0
   -2.4135   -0.7637   -1.0402 C   0  0  0  0  0  0  0  0  0  0  0  0
   -5.0927    1.3556   -0.5179 C   0  0  0  0  0  0  0  0  0  0  0  0
   -6.1198    1.0467    0.3741 C   0  0  0  0  0  0  0  0  0  0  0  0
   -4.4945    2.6152   -0.4834 C   0  0  0  0  0  0  0  0  0  0  0  0
    4.5196    0.3197    0.1855 C   0  0  0  0  0  0  0  0  0  0  0  0
    4.5665    1.7961    0.0184 C   0  0  0  0  0  0  0  0  0  0  0  0
   -6.5487    1.9974    1.3003 C   0  0  0  0  0  0  0  0  0  0  0  0
   -4.9233    3.5658    0.4429 C   0  0  0  0  0  0  0  0  0  0  0  0
   -5.9504    3.2569    1.3348 C   0  0  0  0  0  0  0  0  0  0  0  0
    5.7126    2.4036   -0.4949 C   0  0  0  0  0  0  0  0  0  0  0  0
    3.4646    2.5740    0.3740 C   0  0  0  0  0  0  0  0  0  0  0  0
    5.7569    3.7889   -0.6521 C   0  0  0  0  0  0  0  0  0  0  0  0
    3.5090    3.9593    0.2167 C   0  0  0  0  0  0  0  0  0  0  0  0
    4.6551    4.5667   -0.2965 C   0  0  0  0  0  0  0  0  0  0  0  0
    0.1871   -0.4842   -0.1912 H   0  0  0  0  0  0  0  0  0  0  0  0
   -1.4789   -4.4798    0.0112 H   0  0  0  0  0  0  0  0  0  0  0  0
    0.7772   -5.4282    0.3735 H   0  0  0  0  0  0  0  0  0  0  0  0
   -5.4905   -0.1833   -1.9670 H   0  0  0  0  0  0  0  0  0  0  0  0
   -4.0888    0.8040   -2.3459 H   0  0  0  0  0  0  0  0  0  0  0  0
   -1.8197   -0.0440   -1.5871 H   0  0  0  0  0  0  0  0  0  0  0  0
    3.5397   -4.5623    0.6060 H   0  0  0  0  0  0  0  0  0  0  0  0
    2.4430    0.3408   -0.0567 H   0  0  0  0  0  0  0  0  0  0  0  0
   -6.5988    0.0716    0.3553 H   0  0  0  0  0  0  0  0  0  0  0  0
   -3.6919    2.8680   -1.1711 H   0  0  0  0  0  0  0  0  0  0  0  0
   -7.3493    1.7574    1.9939 H   0  0  0  0  0  0  0  0  0  0  0  0
   -4.4571    4.5463    0.4703 H   0  0  0  0  0  0  0  0  0  0  0  0
   -6.2843    3.9972    2.0558 H   0  0  0  0  0  0  0  0  0  0  0  0
    6.5801    1.8158   -0.7832 H   0  0  0  0  0  0  0  0  0  0  0  0
    2.5660    2.1482    0.8098 H   0  0  0  0  0  0  0  0  0  0  0  0
    6.6488    4.2620   -1.0525 H   0  0  0  0  0  0  0  0  0  0  0  0
    2.6544    4.5664    0.5010 H   0  0  0  0  0  0  0  0  0  0  0  0
    4.6901    5.6454   -0.4175 H   0  0  0  0  0  0  0  0  0  0  0  0
  1 21  2  0  0  0  0
  2  7  1  0  0  0  0
  2 16  1  0  0  0  0
  2 17  1  0  0  0  0
  3  4  1  0  0  0  0
  3  9  1  0  0  0  0
  3 37  1  0  0  0  0
  4 12  2  0  0  0  0
  5 12  1  0  0  0  0
  5 21  1  0  0  0  0
  5 38  1  0  0  0  0
  6  7  2  0  0  0  0
  6 13  1  0  0  0  0
  8  9  2  0  0  0  0
  8 11  1  0  0  0  0
  8 12  1  0  0  0  0
  9 15  1  0  0  0  0
 10 11  2  0  0  0  0
 10 13  1  0  0  0  0
 10 14  1  0  0  0  0
 11 31  1  0  0  0  0
 13 17  2  0  0  0  0
 14 15  2  0  0  0  0
 14 32  1  0  0  0  0
 15 33  1  0  0  0  0
 16 18  1  0  0  0  0
 16 34  1  0  0  0  0
 16 35  1  0  0  0  0
 17 36  1  0  0  0  0
 18 19  2  0  0  0  0
 18 20  1  0  0  0  0
 19 23  1  0  0  0  0
 19 39  1  0  0  0  0
 20 24  2  0  0  0  0
 20 40  1  0  0  0  0
 21 22  1  0  0  0  0
 22 26  2  0  0  0  0
 22 27  1  0  0  0  0
 23 25  2  0  0  0  0
 23 41  1  0  0  0  0
 24 25  1  0  0  0  0
 24 42  1  0  0  0  0
 25 43  1  0  0  0  0
 26 28  1  0  0  0  0
 26 44  1  0  0  0  0
 27 29  2  0  0  0  0
 27 45  1  0  0  0  0
 28 30  2  0  0  0  0
 28 46  1  0  0  0  0
 29 30  1  0  0  0  0
 29 47  1  0  0  0  0
 30 48  1  0  0  0  0
M  END
> <PUBCHEM_COMPOUND_CID>
25164676

> <PUBCHEM_CONFORMER_RMSD>
0.8

> <PUBCHEM_CONFORMER_DIVERSEORDER>
1
78
90
82
63
70
37
84
33
30
111
79
68
86
60
123
42
56
92
75
115
66
71
72
83
77
85
97
21
65
93
43
127
55
35
25
104
94
98
113
7
81
130
44
67
47
99
59
96
54
61
129
28
109
89
24
31
135
57
103
74
29
64
50
101
100
128
107
116
45
12
105
73
132
69
26
112
27
32
38
108
13
117
134
122
41
51
80
3
62
18
121
14
91
58
119
125
120
2
22
87
39
19
102
114
131
5
48
106
46
53
36
76
16
8
110
49
95
40
52
4
133
34
124
118
88
10
11
23
126
15
20
17
6
9

> <PUBCHEM_MMFF94_PARTIAL_CHARGES>
45
1 -0.57
10 0.05
11 -0.15
12 0.35
13 0.17
14 -0.15
15 -0.15
16 0.4
17 -0.3
18 -0.14
19 -0.15
2 0.31
20 -0.15
21 0.54
22 0.09
23 -0.15
24 -0.15
25 -0.15
26 -0.15
27 -0.15
28 -0.15
29 -0.15
3 0.3
30 -0.15
31 0.15
32 0.15
33 0.15
36 0.15
37 0.27
38 0.37
39 0.15
4 -0.71
40 0.15
41 0.15
42 0.15
43 0.15
44 0.15
45 0.15
46 0.15
47 0.15
48 0.15
5 -0.49
6 -0.23
7 -0.42
9 -0.15

> <PUBCHEM_EFFECTIVE_ROTOR_COUNT>
6

> <PUBCHEM_PHARMACOPHORE_FEATURES>
8
1 1 acceptor
1 3 donor
1 5 donor
5 2 6 7 13 17 rings
5 3 4 8 9 12 rings
6 18 19 20 23 24 25 rings
6 22 26 27 28 29 30 rings
6 8 9 10 11 14 15 rings

> <PUBCHEM_HEAVY_ATOM_COUNT>
30

> <PUBCHEM_ATOM_DEF_STEREO_COUNT>
0

> <PUBCHEM_ATOM_UDEF_STEREO_COUNT>
0

> <PUBCHEM_BOND_DEF_STEREO_COUNT>
0

> <PUBCHEM_BOND_UDEF_STEREO_COUNT>
0

> <PUBCHEM_ISOTOPIC_ATOM_COUNT>
0

> <PUBCHEM_COMPONENT_COUNT>
1

> <PUBCHEM_CACTVS_TAUTO_COUNT>
8

> <PUBCHEM_CONFORMER_ID>
017FFB8400000001

> <PUBCHEM_MMFF94_ENERGY>
71.6844

> <PUBCHEM_FEATURE_SELFOVERLAP>
40.69

> <PUBCHEM_SHAPE_FINGERPRINT>
100830 2 18411989069692185777
10439779 11 18122332747782725040
10917259 69 18338239375680046684
11059048 146 18339639056968670344
11070050 100 16950565419863168002
11101153 10 18413100668253718415
11479125 193 18410300232795588729
11828042 163 18341061740255110980
11973864 155 17975439093169695604
1200032 147 18114186363174071776
12107183 9 18117255130471294026
12925494 130 18409443709269312201
12975358 362 16983520967058676617
13398642 44 18187940498815677413
13590594 115 17401766320012103931
13885169 86 18340772555236733417
13944108 23 18339646629602428060
14251764 75 18411421713138455941
14347329 18 18339917229178659176
14429114 114 18339919445292235969
14664723 55 18043256940891178924
14790565 3 18410855485903246853
14849402 71 18265052440400510690
15081414 286 17979632338639033799
15082195 135 18268124561967035879
15142526 21 18260830367558633723
15274700 147 15804702062811765484
15320295 198 17756990009139235557
15320467 1 18410290285514498508
15351339 4 18341604975190201457
16067689 134 18197230156468389588
16112460 7 18269840813275686001
16708801 149 18266720528161973888
16728433 281 17902242431820644860
16760501 71 18338238159496556057
16992779 147 18267034859986321113
1768 23 17559690438694515609
19302320 297 18266179426722732443
20691028 202 18271523075468605161
22122407 14 18410016537109379579
245318 6 18187376461976905165
24771293 8 18127384806365542954
4173938 77 18268161859078009557
437795 171 18262228933132505757
437795 96 17753604647102340077
5104073 3 18114179696958132467
5223283 242 17627539067250077742
53794403 172 18339084795854791110
550186 72 18050002500451304407
57724786 102 18340202982127392959
5951187 136 18200605695940947070
6058803 2 18269251539937998527
7970288 3 8323076514521845084

> <PUBCHEM_SHAPE_MULTIPOLES>
581.63
17.13
7.35
0.96
8.55
0.6
0.06
22.9
-1.3
-5.59
-0.88
1.21
0.38
-2.69

> <PUBCHEM_SHAPE_SELFOVERLAP>
1299.427

> <PUBCHEM_SHAPE_VOLUME>
309.3

> <PUBCHEM_COORDINATE_TYPE>
2
5
10

$$$$
