49830689
  -OEChem-10052120433D

 39 41  0     0  0  0  0  0  0999 V2000
    7.7021    0.2550    0.0922 F   0  0  0  0  0  0  0  0  0  0  0  0
    6.2653    1.4813   -0.9845 F   0  0  0  0  0  0  0  0  0  0  0  0
    6.2281    1.4234    1.1832 F   0  0  0  0  0  0  0  0  0  0  0  0
   -8.2342   -1.4198    0.8766 F   0  0  0  0  0  0  0  0  0  0  0  0
   -7.0308   -2.5410   -0.5460 F   0  0  0  0  0  0  0  0  0  0  0  0
   -6.5655   -0.3553   -0.1797 O   0  0  0  0  0  0  0  0  0  0  0  0
    1.7951    1.2845    0.0156 O   0  0  0  0  0  0  0  0  0  0  0  0
   -0.1556   -0.0095   -0.0547 N   0  0  0  0  0  0  0  0  0  0  0  0
   -3.1263    2.9334   -0.0297 N   0  0  0  0  0  0  0  0  0  0  0  0
    1.9012   -1.0508   -0.0452 N   0  0  0  0  0  0  0  0  0  0  0  0
    4.1363   -0.2418    0.0171 N   0  0  0  0  0  0  0  0  0  0  0  0
   -2.5281    0.5996   -0.0812 C   0  0  0  0  0  0  0  0  0  0  0  0
   -1.1723    0.9527   -0.0474 C   0  0  0  0  0  0  0  0  0  0  0  0
   -3.4847    1.6363   -0.0709 C   0  0  0  0  0  0  0  0  0  0  0  0
   -2.9379   -0.7438   -0.1241 C   0  0  0  0  0  0  0  0  0  0  0  0
   -4.8315    1.2849   -0.1048 C   0  0  0  0  0  0  0  0  0  0  0  0
   -0.7999    2.2885   -0.0047 C   0  0  0  0  0  0  0  0  0  0  0  0
   -5.2391   -0.0506   -0.1476 C   0  0  0  0  0  0  0  0  0  0  0  0
   -4.2915   -1.0665   -0.1570 C   0  0  0  0  0  0  0  0  0  0  0  0
   -1.8072    3.2318    0.0025 C   0  0  0  0  0  0  0  0  0  0  0  0
    1.2434    0.1894   -0.0239 C   0  0  0  0  0  0  0  0  0  0  0  0
    3.2942   -1.2984   -0.0265 C   0  0  0  0  0  0  0  0  0  0  0  0
    5.4577   -0.5273    0.0330 C   0  0  0  0  0  0  0  0  0  0  0  0
    3.7087   -2.6202   -0.0550 C   0  0  0  0  0  0  0  0  0  0  0  0
    5.9736   -1.8130    0.0075 C   0  0  0  0  0  0  0  0  0  0  0  0
    5.0757   -2.8739   -0.0374 C   0  0  0  0  0  0  0  0  0  0  0  0
    6.3918    0.6355    0.0800 C   0  0  0  0  0  0  0  0  0  0  0  0
   -6.9686   -1.5845    0.4126 C   0  0  0  0  0  0  0  0  0  0  0  0
   -2.2418   -1.5759   -0.1397 H   0  0  0  0  0  0  0  0  0  0  0  0
   -5.5892    2.0672   -0.0977 H   0  0  0  0  0  0  0  0  0  0  0  0
    0.2048    2.6756    0.0239 H   0  0  0  0  0  0  0  0  0  0  0  0
   -0.4379   -0.9817   -0.0856 H   0  0  0  0  0  0  0  0  0  0  0  0
   -4.5632   -2.1159   -0.2163 H   0  0  0  0  0  0  0  0  0  0  0  0
   -1.5779    4.2920    0.0352 H   0  0  0  0  0  0  0  0  0  0  0  0
    1.3107   -1.8781   -0.0782 H   0  0  0  0  0  0  0  0  0  0  0  0
    3.0039   -3.4444   -0.0901 H   0  0  0  0  0  0  0  0  0  0  0  0
    7.0398   -2.0103    0.0211 H   0  0  0  0  0  0  0  0  0  0  0  0
    5.4406   -3.8964   -0.0586 H   0  0  0  0  0  0  0  0  0  0  0  0
   -6.3452   -1.9135    1.2515 H   0  0  0  0  0  0  0  0  0  0  0  0
  1 27  1  0  0  0  0
  2 27  1  0  0  0  0
  3 27  1  0  0  0  0
  4 28  1  0  0  0  0
  5 28  1  0  0  0  0
  6 18  1  0  0  0  0
  6 28  1  0  0  0  0
  7 21  2  0  0  0  0
  8 13  1  0  0  0  0
  8 21  1  0  0  0  0
  8 32  1  0  0  0  0
  9 14  2  0  0  0  0
  9 20  1  0  0  0  0
 10 21  1  0  0  0  0
 10 22  1  0  0  0  0
 10 35  1  0  0  0  0
 11 22  1  0  0  0  0
 11 23  2  0  0  0  0
 12 13  2  0  0  0  0
 12 14  1  0  0  0  0
 12 15  1  0  0  0  0
 13 17  1  0  0  0  0
 14 16  1  0  0  0  0
 15 19  2  0  0  0  0
 15 29  1  0  0  0  0
 16 18  2  0  0  0  0
 16 30  1  0  0  0  0
 17 20  2  0  0  0  0
 17 31  1  0  0  0  0
 18 19  1  0  0  0  0
 19 33  1  0  0  0  0
 20 34  1  0  0  0  0
 22 24  2  0  0  0  0
 23 25  1  0  0  0  0
 23 27  1  0  0  0  0
 24 26  1  0  0  0  0
 24 36  1  0  0  0  0
 25 26  2  0  0  0  0
 25 37  1  0  0  0  0
 26 38  1  0  0  0  0
 28 39  1  0  0  0  0
M  END
> <PUBCHEM_COMPOUND_CID>
49830689

> <PUBCHEM_CONFORMER_RMSD>
0.8

> <PUBCHEM_CONFORMER_DIVERSEORDER>
1
59
55
64
28
26
53
74
46
12
7
42
57
70
45
25
36
73
27
78
68
60
18
23
11
35
38
40
13
39
75
48
16
10
67
63
22
56
37
2
33
20
66
65
43
62
61
15
9
47
5
51
76
50
29
69
32
4
72
14
77
54
3
34
71
49
44
58
52
17
8
41
6
19
21
31
24
30

> <PUBCHEM_MMFF94_PARTIAL_CHARGES>
37
1 -0.34
10 -0.55
11 -0.62
13 0.12
14 0.31
15 -0.15
16 -0.15
17 -0.15
18 0.08
19 -0.15
2 -0.34
20 0.16
21 0.69
22 0.43
23 0.17
24 -0.15
25 -0.15
26 -0.15
27 1.16
28 0.96
29 0.15
3 -0.34
30 0.15
31 0.15
32 0.37
33 0.15
34 0.15
35 0.37
36 0.15
37 0.15
38 0.15
4 -0.34
5 -0.34
6 -0.36
7 -0.57
8 -0.55
9 -0.62

> <PUBCHEM_EFFECTIVE_ROTOR_COUNT>
7

> <PUBCHEM_PHARMACOPHORE_FEATURES>
9
1 10 donor
1 11 acceptor
1 6 acceptor
1 7 acceptor
1 8 donor
1 9 acceptor
6 11 22 23 24 25 26 rings
6 12 14 15 16 18 19 rings
6 9 12 13 14 17 20 rings

> <PUBCHEM_HEAVY_ATOM_COUNT>
28

> <PUBCHEM_ATOM_DEF_STEREO_COUNT>
0

> <PUBCHEM_ATOM_UDEF_STEREO_COUNT>
0

> <PUBCHEM_BOND_DEF_STEREO_COUNT>
0

> <PUBCHEM_BOND_UDEF_STEREO_COUNT>
0

> <PUBCHEM_ISOTOPIC_ATOM_COUNT>
0

> <PUBCHEM_COMPONENT_COUNT>
1

> <PUBCHEM_CACTVS_TAUTO_COUNT>
11

> <PUBCHEM_CONFORMER_ID>
02F85B2100000001

> <PUBCHEM_MMFF94_ENERGY>
84.058

> <PUBCHEM_FEATURE_SELFOVERLAP>
45.757

> <PUBCHEM_SHAPE_FINGERPRINT>
10411042 1 18410293645233257157
10595046 47 18336548222909267946
10835480 77 18337664201067844828
10939801 23 18341893039036926062
11524674 6 16272203090002735039
11724838 91 18259984877918989476
12107183 9 17328864297302152952
12166972 35 17821733844943658229
12516196 113 18412825789539711097
12760667 363 18408608063663829075
13073987 5 18340204090312967944
1361 4 18411138008995344438
13685833 64 18410013239038765051
14251732 16 18412261722836757476
14251764 18 18202285814464909299
14394314 77 18337395938096105057
14461889 52 18409162230166569946
14904525 67 15841262675849629816
15196674 1 18339079268648696908
15510800 12 17968104183176949643
15728490 51 18412260674960092414
15927050 60 17623005012268079892
16087824 20 18265332812810777877
17492 89 18195526983240041294
17844677 252 18268153059296395572
18335252 98 18411140238288423938
18608769 82 18341046406150706010
21049683 271 18340208587054991664
21130935 74 18342177713353023482
21197605 99 18412263930978189502
21223535 225 15357969028799528111
21267235 1 18409171022001079713
21315763 28 18336827499074167850
21774942 28 12902089965210115647
22149856 69 18130232562211507546
23424782 7 18410576184607502746
23522609 53 18125190227435803937
23559900 14 18411408514841716201
24771750 20 17972327484032132636
3004659 81 18040432209466341059
335352 9 18410568480427937989
335507 130 18272929423733356558
3383291 50 18041003973010010523
34797466 226 17632581561325250684
394071 54 15553861374879287218
4073 2 18186810154044665418
4214541 1 18267021644261330196
4325135 7 18409730660455594796
4461854 278 18059021686891684615
497634 4 18337391513435894820
5104073 3 18199180699001523160
59682541 35 18341606053996645352
999808 66 18186812392039306739

> <PUBCHEM_SHAPE_MULTIPOLES>
508.2
22.03
3.11
0.68
1.87
0.4
0.03
-10.51
1.46
-1.05
-0.03
0.09
0.03
0.35

> <PUBCHEM_SHAPE_SELFOVERLAP>
1113.318

> <PUBCHEM_SHAPE_VOLUME>
273.8

> <PUBCHEM_COORDINATE_TYPE>
2
5
10

$$$$
