159926
  -OEChem-10062122013D

 33 35  0     0  0  0  0  0  0999 V2000
    0.1208   -2.7092   -0.0002 O   0  0  0  0  0  0  0  0  0  0  0  0
    0.2497    2.6334   -0.0006 O   0  0  0  0  0  0  0  0  0  0  0  0
   -2.3302    2.7691    0.0003 O   0  0  0  0  0  0  0  0  0  0  0  0
   -4.7264   -1.3199    0.0010 O   0  0  0  0  0  0  0  0  0  0  0  0
    5.0630    1.2618    0.0007 O   0  0  0  0  0  0  0  0  0  0  0  0
    1.4315   -0.7599   -0.0006 C   0  0  0  0  0  0  0  0  0  0  0  0
    1.4583    0.6363   -0.0003 C   0  0  0  0  0  0  0  0  0  0  0  0
   -1.0872    0.6850   -0.0006 C   0  0  0  0  0  0  0  0  0  0  0  0
   -1.1140   -0.7111   -0.0007 C   0  0  0  0  0  0  0  0  0  0  0  0
    0.1444   -1.4847   -0.0011 C   0  0  0  0  0  0  0  0  0  0  0  0
    0.1998    1.4098   -0.0007 C   0  0  0  0  0  0  0  0  0  0  0  0
    2.6313   -1.4813   -0.0004 C   0  0  0  0  0  0  0  0  0  0  0  0
    2.6850    1.3111    0.0004 C   0  0  0  0  0  0  0  0  0  0  0  0
    3.8515   -0.8049    0.0003 C   0  0  0  0  0  0  0  0  0  0  0  0
   -2.2872    1.4064   -0.0002 C   0  0  0  0  0  0  0  0  0  0  0  0
   -2.3408   -1.3860   -0.0003 C   0  0  0  0  0  0  0  0  0  0  0  0
    3.8783    0.5883    0.0007 C   0  0  0  0  0  0  0  0  0  0  0  0
   -3.5341   -0.6631    0.0000 C   0  0  0  0  0  0  0  0  0  0  0  0
   -3.5073    0.7301    0.0002 C   0  0  0  0  0  0  0  0  0  0  0  0
    5.1214   -1.5909    0.0009 C   0  0  0  0  0  0  0  0  0  0  0  0
   -5.9080   -0.5202    0.0013 C   0  0  0  0  0  0  0  0  0  0  0  0
    2.6197   -2.5685   -0.0006 H   0  0  0  0  0  0  0  0  0  0  0  0
    2.7193    2.3978    0.0007 H   0  0  0  0  0  0  0  0  0  0  0  0
   -2.3821   -2.4724   -0.0002 H   0  0  0  0  0  0  0  0  0  0  0  0
   -4.4085    1.3343    0.0006 H   0  0  0  0  0  0  0  0  0  0  0  0
    5.7129   -1.3582   -0.8908 H   0  0  0  0  0  0  0  0  0  0  0  0
    5.7113   -1.3593    0.8940 H   0  0  0  0  0  0  0  0  0  0  0  0
    4.9359   -2.6703    0.0000 H   0  0  0  0  0  0  0  0  0  0  0  0
   -3.2545    3.0708    0.0006 H   0  0  0  0  0  0  0  0  0  0  0  0
    4.8860    2.2182    0.0009 H   0  0  0  0  0  0  0  0  0  0  0  0
   -5.9853    0.0845    0.9113 H   0  0  0  0  0  0  0  0  0  0  0  0
   -6.7615   -1.2062    0.0017 H   0  0  0  0  0  0  0  0  0  0  0  0
   -5.9859    0.0842   -0.9088 H   0  0  0  0  0  0  0  0  0  0  0  0
  1 10  2  0  0  0  0
  2 11  2  0  0  0  0
  3 15  1  0  0  0  0
  3 29  1  0  0  0  0
  4 18  1  0  0  0  0
  4 21  1  0  0  0  0
  5 17  1  0  0  0  0
  5 30  1  0  0  0  0
  6  7  2  0  0  0  0
  6 10  1  0  0  0  0
  6 12  1  0  0  0  0
  7 11  1  0  0  0  0
  7 13  1  0  0  0  0
  8  9  2  0  0  0  0
  8 11  1  0  0  0  0
  8 15  1  0  0  0  0
  9 10  1  0  0  0  0
  9 16  1  0  0  0  0
 12 14  2  0  0  0  0
 12 22  1  0  0  0  0
 13 17  2  0  0  0  0
 13 23  1  0  0  0  0
 14 17  1  0  0  0  0
 14 20  1  0  0  0  0
 15 19  2  0  0  0  0
 16 18  2  0  0  0  0
 16 24  1  0  0  0  0
 18 19  1  0  0  0  0
 19 25  1  0  0  0  0
 20 26  1  0  0  0  0
 20 27  1  0  0  0  0
 20 28  1  0  0  0  0
 21 31  1  0  0  0  0
 21 32  1  0  0  0  0
 21 33  1  0  0  0  0
M  END
> <PUBCHEM_COMPOUND_CID>
159926

> <PUBCHEM_CONFORMER_RMSD>
0.6

> <PUBCHEM_CONFORMER_DIVERSEORDER>
1

> <PUBCHEM_MMFF94_PARTIAL_CHARGES>
27
1 -0.57
10 0.4
11 0.4
12 -0.15
13 -0.15
14 -0.14
15 0.08
16 -0.15
17 0.08
18 0.08
19 -0.15
2 -0.57
20 0.14
21 0.28
22 0.15
23 0.15
24 0.15
25 0.15
29 0.45
3 -0.53
30 0.45
4 -0.36
5 -0.53
6 0.09
7 0.09
8 0.09
9 0.09

> <PUBCHEM_EFFECTIVE_ROTOR_COUNT>
1

> <PUBCHEM_PHARMACOPHORE_FEATURES>
8
1 1 acceptor
1 2 acceptor
1 3 donor
1 4 acceptor
1 5 donor
6 6 7 12 13 14 17 rings
6 6 7 8 9 10 11 rings
6 8 9 15 16 18 19 rings

> <PUBCHEM_HEAVY_ATOM_COUNT>
21

> <PUBCHEM_ATOM_DEF_STEREO_COUNT>
0

> <PUBCHEM_ATOM_UDEF_STEREO_COUNT>
0

> <PUBCHEM_BOND_DEF_STEREO_COUNT>
0

> <PUBCHEM_BOND_UDEF_STEREO_COUNT>
0

> <PUBCHEM_ISOTOPIC_ATOM_COUNT>
0

> <PUBCHEM_COMPONENT_COUNT>
1

> <PUBCHEM_CACTVS_TAUTO_COUNT>
25

> <PUBCHEM_CONFORMER_ID>
000270B600000001

> <PUBCHEM_MMFF94_ENERGY>
72.1541

> <PUBCHEM_FEATURE_SELFOVERLAP>
40.639

> <PUBCHEM_SHAPE_FINGERPRINT>
10616163 171 18339643313233346198
10906281 52 18337692866137812363
10967382 1 18338516451248353094
11806522 49 18409448107009608405
12011746 2 18410294739283911839
12107183 9 17615966612904328114
12236239 1 17917994992728366195
12403259 226 18411694383269075840
12838862 33 18267001998838351125
13140716 1 18267016150918966192
13583140 156 14692286188824825267
138480 1 15240040535079088961
13862211 1 18411132541591251175
14115302 16 17677059047987622999
14341114 176 18334863826645539259
14787075 74 18412262869403160531
14790565 3 18411707586394137137
15196674 1 18410573963771716096
15536298 74 18341894087124626722
16945 1 18194401323481491364
17492 89 18266457603196961290
17804303 29 18413390925362616576
1813 80 17385724694918770308
18522853 276 18411701001997769073
19141452 34 18059574732750046127
19591789 44 18411136896703738158
200 152 18201997742423498893
20028762 73 18202277039562771151
20510252 161 18343585122654090632
20645477 70 18413109433818245998
21029758 11 18413106186574822897
21236236 1 18341050727388959033
21267235 1 18410863135556901886
21279426 13 18336824178847826381
221490 88 18119253015480689643
2334 1 18410855464602600580
23402539 116 18343013419636460807
23463225 33 18408604747226104052
23557571 272 18201164256379619566
23559900 14 18268706289322569088
2748010 2 18410855438769460932
2871803 45 18335134285057340447
3004659 81 18259985955744985542
335352 9 18338516326984660165
34934 24 18267862964293974050
350125 39 18410857663483775640
4214541 1 18338516339669166496
465052 167 18341337794397388383
474 4 17313956354402139012
474229 33 18411418431635904687
5104073 3 18340204103234884944
537710 114 18410298042324934300
59755656 215 18337392638896693903
69090 78 18342736346911570454
9709674 26 18411707560513518158

> <PUBCHEM_SHAPE_MULTIPOLES>
402.82
10.07
2.47
0.59
1.55
0.58
0
-2.26
-0.01
-0.06
0
-0.01
-0.01
0

> <PUBCHEM_SHAPE_SELFOVERLAP>
904.985

> <PUBCHEM_SHAPE_VOLUME>
212.6

> <PUBCHEM_COORDINATE_TYPE>
2
5
10

$$$$
