22665513
  -OEChem-10052115183D

 49 51  0     1  0  0  0  0  0999 V2000
    4.2210    1.4570    0.1527 O   0  0  0  0  0  0  0  0  0  0  0  0
   -2.0337    1.8132   -0.2095 N   0  0  0  0  0  0  0  0  0  0  0  0
   -4.3074    1.8269    1.6647 N   0  0  0  0  0  0  0  0  0  0  0  0
    0.0712    0.8237    0.1952 N   0  0  0  0  0  0  0  0  0  0  0  0
    1.2748    3.2515   -0.5281 N   0  0  0  0  0  0  0  0  0  0  0  0
    2.2245   -0.1030    0.5825 N   0  0  0  0  0  0  0  0  0  0  0  0
    3.9243    3.6246   -0.5344 N   0  0  0  0  0  0  0  0  0  0  0  0
   -2.7713    0.6148    0.1398 C   0  0  1  0  0  0  0  0  0  0  0  0
   -4.2317    0.9668    0.4804 C   0  0  1  0  0  0  0  0  0  0  0  0
   -2.6968   -0.3653   -1.0363 C   0  0  0  0  0  0  0  0  0  0  0  0
   -5.0624   -0.2990    0.7285 C   0  0  0  0  0  0  0  0  0  0  0  0
   -3.5327   -1.6165   -0.7847 C   0  0  0  0  0  0  0  0  0  0  0  0
   -4.9787   -1.2657   -0.4504 C   0  0  0  0  0  0  0  0  0  0  0  0
   -0.6544    1.8965   -0.1776 C   0  0  0  0  0  0  0  0  0  0  0  0
   -0.0633    3.0890   -0.5330 C   0  0  0  0  0  0  0  0  0  0  0  0
    1.4092    0.9863    0.2003 C   0  0  0  0  0  0  0  0  0  0  0  0
    2.0004    2.1788   -0.1551 C   0  0  0  0  0  0  0  0  0  0  0  0
    2.0620   -1.4960    0.4758 C   0  0  0  0  0  0  0  0  0  0  0  0
    3.4418    2.3752   -0.1563 C   0  0  0  0  0  0  0  0  0  0  0  0
    1.3178   -2.0332   -0.5745 C   0  0  0  0  0  0  0  0  0  0  0  0
    2.6450   -2.3403    1.4208 C   0  0  0  0  0  0  0  0  0  0  0  0
    1.1564   -3.4148   -0.6796 C   0  0  0  0  0  0  0  0  0  0  0  0
    2.4838   -3.7218    1.3156 C   0  0  0  0  0  0  0  0  0  0  0  0
    1.7395   -4.2589    0.2653 C   0  0  0  0  0  0  0  0  0  0  0  0
    0.3605   -3.9896   -1.8020 C   0  0  0  0  0  0  0  0  0  0  0  0
   -2.3196    0.1441    1.0248 H   0  0  0  0  0  0  0  0  0  0  0  0
   -4.6759    1.5169   -0.3601 H   0  0  0  0  0  0  0  0  0  0  0  0
   -1.6616   -0.6668   -1.2312 H   0  0  0  0  0  0  0  0  0  0  0  0
   -3.0504    0.1248   -1.9535 H   0  0  0  0  0  0  0  0  0  0  0  0
   -4.7109   -0.8095    1.6350 H   0  0  0  0  0  0  0  0  0  0  0  0
   -6.1131   -0.0346    0.9011 H   0  0  0  0  0  0  0  0  0  0  0  0
   -3.5055   -2.2620   -1.6700 H   0  0  0  0  0  0  0  0  0  0  0  0
   -3.0933   -2.1889    0.0415 H   0  0  0  0  0  0  0  0  0  0  0  0
   -5.5349   -2.1805   -0.2165 H   0  0  0  0  0  0  0  0  0  0  0  0
   -5.4586   -0.8149   -1.3277 H   0  0  0  0  0  0  0  0  0  0  0  0
   -2.5211    2.5105   -0.7636 H   0  0  0  0  0  0  0  0  0  0  0  0
   -3.7895    2.6878    1.4929 H   0  0  0  0  0  0  0  0  0  0  0  0
   -5.2755    2.0996    1.8293 H   0  0  0  0  0  0  0  0  0  0  0  0
   -0.6345    3.9599   -0.8339 H   0  0  0  0  0  0  0  0  0  0  0  0
    2.9869    0.1691    1.1972 H   0  0  0  0  0  0  0  0  0  0  0  0
    0.8684   -1.3872   -1.3248 H   0  0  0  0  0  0  0  0  0  0  0  0
    3.2267   -1.9348    2.2448 H   0  0  0  0  0  0  0  0  0  0  0  0
    2.9372   -4.3791    2.0517 H   0  0  0  0  0  0  0  0  0  0  0  0
    1.6204   -5.3370    0.1965 H   0  0  0  0  0  0  0  0  0  0  0  0
    0.5965   -5.0468   -1.9630 H   0  0  0  0  0  0  0  0  0  0  0  0
    0.5763   -3.4653   -2.7392 H   0  0  0  0  0  0  0  0  0  0  0  0
   -0.7092   -3.9032   -1.5862 H   0  0  0  0  0  0  0  0  0  0  0  0
    4.9209    3.8135   -0.5588 H   0  0  0  0  0  0  0  0  0  0  0  0
    3.3053    4.3849   -0.7974 H   0  0  0  0  0  0  0  0  0  0  0  0
  1 19  2  0  0  0  0
  2  8  1  0  0  0  0
  2 14  1  0  0  0  0
  2 36  1  0  0  0  0
  3  9  1  0  0  0  0
  3 37  1  0  0  0  0
  3 38  1  0  0  0  0
  4 14  1  0  0  0  0
  4 16  2  0  0  0  0
  5 15  1  0  0  0  0
  5 17  2  0  0  0  0
  6 16  1  0  0  0  0
  6 18  1  0  0  0  0
  6 40  1  0  0  0  0
  7 19  1  0  0  0  0
  7 48  1  0  0  0  0
  7 49  1  0  0  0  0
  8  9  1  0  0  0  0
  8 10  1  0  0  0  0
  8 26  1  0  0  0  0
  9 11  1  0  0  0  0
  9 27  1  0  0  0  0
 10 12  1  0  0  0  0
 10 28  1  0  0  0  0
 10 29  1  0  0  0  0
 11 13  1  0  0  0  0
 11 30  1  0  0  0  0
 11 31  1  0  0  0  0
 12 13  1  0  0  0  0
 12 32  1  0  0  0  0
 12 33  1  0  0  0  0
 13 34  1  0  0  0  0
 13 35  1  0  0  0  0
 14 15  2  0  0  0  0
 15 39  1  0  0  0  0
 16 17  1  0  0  0  0
 17 19  1  0  0  0  0
 18 20  1  0  0  0  0
 18 21  2  0  0  0  0
 20 22  2  0  0  0  0
 20 41  1  0  0  0  0
 21 23  1  0  0  0  0
 21 42  1  0  0  0  0
 22 24  1  0  0  0  0
 22 25  1  0  0  0  0
 23 24  2  0  0  0  0
 23 43  1  0  0  0  0
 24 44  1  0  0  0  0
 25 45  1  0  0  0  0
 25 46  1  0  0  0  0
 25 47  1  0  0  0  0
M  END
> <PUBCHEM_COMPOUND_CID>
22665513

> <PUBCHEM_CONFORMER_RMSD>
1

> <PUBCHEM_CONFORMER_DIVERSEORDER>
1
125
37
157
179
135
184
137
131
189
53
147
185
161
143
14
68
165
42
90
139
182
50
187
176
63
174
49
48
198
13
52
51
155
194
26
170
133
92
105
177
188
16
40
181
25
54
142
89
79
175
28
120
31
38
110
141
190
115
160
77
46
154
180
146
32
114
36
7
57
169
164
43
127
11
148
140
178
76
168
69
144
58
71
195
109
150
65
66
183
149
117
95
44
5
19
61
123
30
20
103
118
94
12
113
91
15
107
99
60
112
86
88
78
96
93
132
2
163
192
153
73
27
85
171
70
33
21
8
193
67
84
126
47
167
4
97
72
172
98
6
104
18
162
62
9
134
197
100
56
23
17
159
116
22
196
59
156
122
108
39
74
45
173
3
158
186
191
87
83
138
119
136
121
82
130
41
124
152
102
80
10
111
64
75
35
145
106
55
128
101
81
29
166
199
129
24
34
151

> <PUBCHEM_MMFF94_PARTIAL_CHARGES>
32
1 -0.57
14 0.41
15 0.16
16 0.41
17 0.4
18 0.1
19 0.54
2 -0.87
20 -0.15
21 -0.15
22 -0.14
23 -0.15
24 -0.15
25 0.14
3 -0.99
36 0.4
37 0.36
38 0.36
39 0.15
4 -0.62
40 0.4
41 0.15
42 0.15
43 0.15
44 0.15
48 0.37
49 0.37
5 -0.62
6 -0.6
7 -0.8
8 0.37
9 0.27

> <PUBCHEM_EFFECTIVE_ROTOR_COUNT>
6.2

> <PUBCHEM_PHARMACOPHORE_FEATURES>
12
1 1 acceptor
1 2 cation
1 2 donor
1 3 cation
1 3 donor
1 5 acceptor
1 6 donor
1 7 donor
3 4 6 16 cation
6 18 20 21 22 23 24 rings
6 4 5 14 15 16 17 rings
6 8 9 10 11 12 13 rings

> <PUBCHEM_HEAVY_ATOM_COUNT>
25

> <PUBCHEM_ATOM_DEF_STEREO_COUNT>
0

> <PUBCHEM_ATOM_UDEF_STEREO_COUNT>
2

> <PUBCHEM_BOND_DEF_STEREO_COUNT>
0

> <PUBCHEM_BOND_UDEF_STEREO_COUNT>
0

> <PUBCHEM_ISOTOPIC_ATOM_COUNT>
0

> <PUBCHEM_COMPONENT_COUNT>
1

> <PUBCHEM_CACTVS_TAUTO_COUNT>
15

> <PUBCHEM_CONFORMER_ID>
0159D92900000001

> <PUBCHEM_MMFF94_ENERGY>
76.975

> <PUBCHEM_FEATURE_SELFOVERLAP>
60.899

> <PUBCHEM_SHAPE_FINGERPRINT>
10616163 171 18267304412329171491
1100329 8 17834103522254421796
11421498 54 18059592307555690465
11578080 2 17314785187967834996
12047536 79 17909028420249456353
12107183 9 17979925904534239145
12156800 1 11452563014045893694
12553582 1 18123750855129641919
12633257 1 18125438610247966223
12788726 201 17398131360403634098
12839892 36 18265312015549787808
13533116 47 18343860005794693249
138480 1 18265613186771679206
14790565 3 18265337394221908788
14844126 61 17108459485795115970
14863182 85 18261684765022791260
14866123 147 17977376463444112338
17138139 8 17338976960994038015
17974551 9 15045817453761336427
19591789 44 18337949103807590004
20028762 73 18342172328001630262
20739085 24 18408321086048028556
21133410 52 18194093370602289306
21421861 104 18339935796490928641
21796203 349 17833587550489891242
23559900 14 18265601087817339864
314173 41 18049445833675996691
3421961 26 18336548192522951721
38695281 34 18337669848854497037
57091435 65 18410293575522198830
6287921 2 18272929380219453619
70634741 139 15969647945394777590
7097593 13 18341897338452027073

> <PUBCHEM_SHAPE_MULTIPOLES>
478.73
8.52
6.01
1.19
10.3
2.11
0.06
-0.7
2.01
-7.23
-1.18
0.16
0.88
-1.77

> <PUBCHEM_SHAPE_SELFOVERLAP>
1017.823

> <PUBCHEM_SHAPE_VOLUME>
263.7

> <PUBCHEM_COORDINATE_TYPE>
2
5
10

$$$$
