24955953
  -OEChem-10052115143D

 74 77  0     0  0  0  0  0  0999 V2000
    1.2413    4.8438    0.9676 O   0  0  0  0  0  0  0  0  0  0  0  0
   -3.1341   -3.0784   -0.1814 N   0  0  0  0  0  0  0  0  0  0  0  0
   -2.3747   -2.5362    0.8160 N   0  0  0  0  0  0  0  0  0  0  0  0
    0.8292    3.5812   -0.9679 N   0  0  0  0  0  0  0  0  0  0  0  0
   -3.4037   -3.8481   -2.4104 N   0  0  0  0  0  0  0  0  0  0  0  0
    1.8010    1.5835   -1.8299 N   0  0  0  0  0  0  0  0  0  0  0  0
    2.6945    0.5631   -1.7291 N   0  0  0  0  0  0  0  0  0  0  0  0
   -5.5842    1.6427    0.0463 C   0  0  0  0  0  0  0  0  0  0  0  0
   -4.1617    1.9783   -0.4074 C   0  0  0  0  0  0  0  0  0  0  0  0
   -6.0011    0.2477   -0.4235 C   0  0  0  0  0  0  0  0  0  0  0  0
   -3.7568    3.3882    0.0299 C   0  0  0  0  0  0  0  0  0  0  0  0
   -5.0952   -0.8690    0.1044 C   0  0  0  0  0  0  0  0  0  0  0  0
   -2.3462    3.7340   -0.4525 C   0  0  0  0  0  0  0  0  0  0  0  0
   -5.4281   -2.2825   -0.3818 C   0  0  0  0  0  0  0  0  0  0  0  0
   -1.8726    5.1259   -0.0158 C   0  0  0  0  0  0  0  0  0  0  0  0
   -4.5118   -3.3559    0.1972 C   0  0  0  0  0  0  0  0  0  0  0  0
   -0.4991    5.5356   -0.5476 C   0  0  0  0  0  0  0  0  0  0  0  0
    0.6368    4.6349   -0.0792 C   0  0  0  0  0  0  0  0  0  0  0  0
   -2.6597   -3.3430   -1.4637 C   0  0  0  0  0  0  0  0  0  0  0  0
   -1.1400   -2.2633    0.5222 C   0  0  0  0  0  0  0  0  0  0  0  0
   -1.2354   -3.0406   -1.7728 C   0  0  0  0  0  0  0  0  0  0  0  0
   -0.4943   -2.5156   -0.7957 C   0  0  0  0  0  0  0  0  0  0  0  0
   -0.2753   -1.6669    1.5750 C   0  0  0  0  0  0  0  0  0  0  0  0
    1.7614    2.5218   -0.8602 C   0  0  0  0  0  0  0  0  0  0  0  0
    0.8696   -2.3398    2.0014 C   0  0  0  0  0  0  0  0  0  0  0  0
   -0.6094   -0.4344    2.1361 C   0  0  0  0  0  0  0  0  0  0  0  0
    2.5923    2.4972    0.2420 C   0  0  0  0  0  0  0  0  0  0  0  0
    1.6804   -1.7805    2.9892 C   0  0  0  0  0  0  0  0  0  0  0  0
    0.2013    0.1251    3.1238 C   0  0  0  0  0  0  0  0  0  0  0  0
    3.5014    1.4590    0.3446 C   0  0  0  0  0  0  0  0  0  0  0  0
    1.3461   -0.5480    3.5503 C   0  0  0  0  0  0  0  0  0  0  0  0
    3.5194    0.5141   -0.6617 C   0  0  0  0  0  0  0  0  0  0  0  0
    4.4338   -0.6006   -0.6359 C   0  0  0  0  0  0  0  0  0  0  0  0
    5.8099   -0.3738   -0.6207 C   0  0  0  0  0  0  0  0  0  0  0  0
    3.9420   -1.9059   -0.6262 C   0  0  0  0  0  0  0  0  0  0  0  0
    6.6944   -1.4522   -0.5956 C   0  0  0  0  0  0  0  0  0  0  0  0
    4.8263   -2.9843   -0.6011 C   0  0  0  0  0  0  0  0  0  0  0  0
    6.2026   -2.7574   -0.5858 C   0  0  0  0  0  0  0  0  0  0  0  0
   -5.6496    1.6982    1.1395 H   0  0  0  0  0  0  0  0  0  0  0  0
   -6.2876    2.3801   -0.3581 H   0  0  0  0  0  0  0  0  0  0  0  0
   -3.4380    1.2814    0.0263 H   0  0  0  0  0  0  0  0  0  0  0  0
   -4.0905    1.8933   -1.4983 H   0  0  0  0  0  0  0  0  0  0  0  0
   -6.0071    0.2209   -1.5201 H   0  0  0  0  0  0  0  0  0  0  0  0
   -7.0310    0.0577   -0.0985 H   0  0  0  0  0  0  0  0  0  0  0  0
   -4.4684    4.1194   -0.3721 H   0  0  0  0  0  0  0  0  0  0  0  0
   -3.7993    3.4618    1.1233 H   0  0  0  0  0  0  0  0  0  0  0  0
   -4.0679   -0.6573   -0.2016 H   0  0  0  0  0  0  0  0  0  0  0  0
   -5.1120   -0.8516    1.2012 H   0  0  0  0  0  0  0  0  0  0  0  0
   -2.3133    3.6706   -1.5471 H   0  0  0  0  0  0  0  0  0  0  0  0
   -1.6553    2.9765   -0.0650 H   0  0  0  0  0  0  0  0  0  0  0  0
   -5.3971   -2.2982   -1.4773 H   0  0  0  0  0  0  0  0  0  0  0  0
   -6.4613   -2.5192   -0.0996 H   0  0  0  0  0  0  0  0  0  0  0  0
   -1.8548    5.1609    1.0808 H   0  0  0  0  0  0  0  0  0  0  0  0
   -2.6065    5.8722   -0.3435 H   0  0  0  0  0  0  0  0  0  0  0  0
   -4.8150   -4.3445   -0.1677 H   0  0  0  0  0  0  0  0  0  0  0  0
   -4.6171   -3.3858    1.2892 H   0  0  0  0  0  0  0  0  0  0  0  0
   -0.2674    6.5533   -0.2105 H   0  0  0  0  0  0  0  0  0  0  0  0
   -0.5172    5.5725   -1.6434 H   0  0  0  0  0  0  0  0  0  0  0  0
   -0.8353   -3.2409   -2.7583 H   0  0  0  0  0  0  0  0  0  0  0  0
    0.2467    3.5359   -1.8003 H   0  0  0  0  0  0  0  0  0  0  0  0
    0.5447   -2.2575   -0.9513 H   0  0  0  0  0  0  0  0  0  0  0  0
   -2.8676   -3.9670   -3.2763 H   0  0  0  0  0  0  0  0  0  0  0  0
    1.1409   -3.3032    1.5776 H   0  0  0  0  0  0  0  0  0  0  0  0
   -1.4967    0.1022    1.8095 H   0  0  0  0  0  0  0  0  0  0  0  0
    2.6063    3.2129    1.0477 H   0  0  0  0  0  0  0  0  0  0  0  0
    2.5721   -2.3043    3.3208 H   0  0  0  0  0  0  0  0  0  0  0  0
   -0.0576    1.0860    3.5589 H   0  0  0  0  0  0  0  0  0  0  0  0
    4.1673    1.4020    1.1999 H   0  0  0  0  0  0  0  0  0  0  0  0
    1.9782   -0.1117    4.3181 H   0  0  0  0  0  0  0  0  0  0  0  0
    6.2143    0.6357   -0.6333 H   0  0  0  0  0  0  0  0  0  0  0  0
    2.8742   -2.1033   -0.6340 H   0  0  0  0  0  0  0  0  0  0  0  0
    7.7661   -1.2758   -0.5850 H   0  0  0  0  0  0  0  0  0  0  0  0
    4.4432   -4.0005   -0.5922 H   0  0  0  0  0  0  0  0  0  0  0  0
    6.8911   -3.5971   -0.5663 H   0  0  0  0  0  0  0  0  0  0  0  0
  1 18  2  0  0  0  0
  2  3  1  0  0  0  0
  2 16  1  0  0  0  0
  2 19  1  0  0  0  0
  3 20  2  0  0  0  0
  4 18  1  0  0  0  0
  4 24  1  0  0  0  0
  4 60  1  0  0  0  0
  5 19  2  0  0  0  0
  5 62  1  0  0  0  0
  6  7  1  0  0  0  0
  6 24  2  0  0  0  0
  7 32  2  0  0  0  0
  8  9  1  0  0  0  0
  8 10  1  0  0  0  0
  8 39  1  0  0  0  0
  8 40  1  0  0  0  0
  9 11  1  0  0  0  0
  9 41  1  0  0  0  0
  9 42  1  0  0  0  0
 10 12  1  0  0  0  0
 10 43  1  0  0  0  0
 10 44  1  0  0  0  0
 11 13  1  0  0  0  0
 11 45  1  0  0  0  0
 11 46  1  0  0  0  0
 12 14  1  0  0  0  0
 12 47  1  0  0  0  0
 12 48  1  0  0  0  0
 13 15  1  0  0  0  0
 13 49  1  0  0  0  0
 13 50  1  0  0  0  0
 14 16  1  0  0  0  0
 14 51  1  0  0  0  0
 14 52  1  0  0  0  0
 15 17  1  0  0  0  0
 15 53  1  0  0  0  0
 15 54  1  0  0  0  0
 16 55  1  0  0  0  0
 16 56  1  0  0  0  0
 17 18  1  0  0  0  0
 17 57  1  0  0  0  0
 17 58  1  0  0  0  0
 19 21  1  0  0  0  0
 20 22  1  0  0  0  0
 20 23  1  0  0  0  0
 21 22  2  0  0  0  0
 21 59  1  0  0  0  0
 22 61  1  0  0  0  0
 23 25  2  0  0  0  0
 23 26  1  0  0  0  0
 24 27  1  0  0  0  0
 25 28  1  0  0  0  0
 25 63  1  0  0  0  0
 26 29  2  0  0  0  0
 26 64  1  0  0  0  0
 27 30  2  0  0  0  0
 27 65  1  0  0  0  0
 28 31  2  0  0  0  0
 28 66  1  0  0  0  0
 29 31  1  0  0  0  0
 29 67  1  0  0  0  0
 30 32  1  0  0  0  0
 30 68  1  0  0  0  0
 31 69  1  0  0  0  0
 32 33  1  0  0  0  0
 33 34  2  0  0  0  0
 33 35  1  0  0  0  0
 34 36  1  0  0  0  0
 34 70  1  0  0  0  0
 35 37  2  0  0  0  0
 35 71  1  0  0  0  0
 36 38  2  0  0  0  0
 36 72  1  0  0  0  0
 37 38  1  0  0  0  0
 37 73  1  0  0  0  0
 38 74  1  0  0  0  0
M  END
> <PUBCHEM_COMPOUND_CID>
24955953

> <PUBCHEM_CONFORMER_RMSD>
1.4

> <PUBCHEM_CONFORMER_DIVERSEORDER>
1
59
185
169
170
48
99
77
20
168
84
87
12
78
3
61
124
93
202
225
133
34
111
192
228
227
159
116
108
211
233
150
190
25
6
103
82
8
29
200
147
105
65
95
247
22
125
240
243
234
126
217
203
92
198
165
161
255
189
46
171
119
166
66
121
32
64
57
86
127
5
89
13
151
110
173
37
183
148
11
250
35
88
221
136
85
175
114
50
21
104
195
239
94
79
60
172
244
73
58
248
213
180
98
118
107
47
206
216
4
134
184
102
101
43
137
153
69
10
30
75
167
252
36
14
115
16
141
158
176
182
186
70
207
204
154
2
179
188
144
24
68
241
251
226
145
146
63
74
191
163
15
229
122
220
128
249
120
201
212
157
197
215
160
138
97
54
235
214
224
123
17
135
31
140
193
231
155
199
174
245
56
254
236
181
219
218
232
113
209
67
80
23
19
55
83
71
39
230
117
222
49
100
246
40
112
156
27
194
196
131
162
177
96
210
45
149
18
109
51
41
38
178
72
26
52
81
62
53
33
76
44
91
253
139
28
9
132
237
152
223
164
208
238
143
7
130
142
205
90
187
42
106
129
242

> <PUBCHEM_MMFF94_PARTIAL_CHARGES>
45
1 -0.57
16 0.37
17 0.06
18 0.57
19 0.49
2 -0.38
20 0.35
21 -0.14
22 -0.14
23 0.09
24 0.43
25 -0.15
26 -0.15
27 -0.15
28 -0.15
29 -0.15
3 -0.49
30 -0.15
31 -0.15
32 0.31
34 -0.15
35 -0.15
36 -0.15
37 -0.15
38 -0.15
4 -0.55
5 -0.85
59 0.15
6 -0.31
60 0.37
61 0.15
62 0.4
63 0.15
64 0.15
65 0.15
66 0.15
67 0.15
68 0.15
69 0.15
7 -0.31
70 0.15
71 0.15
72 0.15
73 0.15
74 0.15

> <PUBCHEM_EFFECTIVE_ROTOR_COUNT>
15

> <PUBCHEM_PHARMACOPHORE_FEATURES>
10
1 1 acceptor
1 3 acceptor
1 4 donor
1 5 donor
1 7 acceptor
3 2 5 19 cation
6 2 3 19 20 21 22 rings
6 23 25 26 28 29 31 rings
6 33 34 35 36 37 38 rings
6 6 7 24 27 30 32 rings

> <PUBCHEM_HEAVY_ATOM_COUNT>
38

> <PUBCHEM_ATOM_DEF_STEREO_COUNT>
0

> <PUBCHEM_ATOM_UDEF_STEREO_COUNT>
0

> <PUBCHEM_BOND_DEF_STEREO_COUNT>
0

> <PUBCHEM_BOND_UDEF_STEREO_COUNT>
0

> <PUBCHEM_ISOTOPIC_ATOM_COUNT>
0

> <PUBCHEM_COMPONENT_COUNT>
1

> <PUBCHEM_CACTVS_TAUTO_COUNT>
3

> <PUBCHEM_CONFORMER_ID>
017CCC3100000001

> <PUBCHEM_MMFF94_ENERGY>
95.2959

> <PUBCHEM_FEATURE_SELFOVERLAP>
50.747

> <PUBCHEM_SHAPE_FINGERPRINT>
11578080 2 17702929461709927986
12156800 1 18121471628303404394
13617811 41 17335884064903415063
14674994 50 18197794206512875344
15001296 14 18188761860177279825
15297060 5 17913208659614848705
15781502 589 18196948866021448060
15975801 100 17314504833903800252
17138139 8 18043254535635594016
17977149 70 18412260640621492033
19311894 1 18410012109378002749
21133410 62 17825377489287503277
21133410 90 17418089918793097144
3493558 16 18268159651734046503
437795 70 18335994090291726726
4918855 1 17823130138273945819
581034 39 17619900665434969289

> <PUBCHEM_SHAPE_MULTIPOLES>
746.27
12.76
7.79
2.37
4.46
9.28
2.38
-7.59
-4.98
-6.13
-2.24
0.94
-1.69
-0.78

> <PUBCHEM_SHAPE_SELFOVERLAP>
1568.463

> <PUBCHEM_SHAPE_VOLUME>
416.1

> <PUBCHEM_COORDINATE_TYPE>
2
5
10

$$$$
