49830747
  -OEChem-10062121523D

 37 39  0     1  0  0  0  0  0999 V2000
    3.2041   -0.6710    0.2510 O   0  0  0  0  0  0  0  0  0  0  0  0
    6.5406   -0.0889    0.6089 N   0  0  0  0  0  0  0  0  0  0  0  0
    1.1916    2.2906   -0.4968 N   0  0  0  0  0  0  0  0  0  0  0  0
   -6.7331   -0.9290    0.1241 N   0  0  0  0  0  0  0  0  0  0  0  0
    4.4039   -0.3005   -0.4163 C   0  0  2  0  0  0  0  0  0  0  0  0
    5.2475   -1.5455   -0.6551 C   0  0  0  0  0  0  0  0  0  0  0  0
    5.2505    0.5921    0.4873 C   0  0  0  0  0  0  0  0  0  0  0  0
    6.2555   -1.5142    0.4784 C   0  0  0  0  0  0  0  0  0  0  0  0
    2.1035    0.1126    0.0225 C   0  0  0  0  0  0  0  0  0  0  0  0
    0.8204   -0.4214    0.0704 C   0  0  0  0  0  0  0  0  0  0  0  0
    2.2340    1.4623   -0.2626 C   0  0  0  0  0  0  0  0  0  0  0  0
   -0.2772    0.3992   -0.1649 C   0  0  0  0  0  0  0  0  0  0  0  0
   -0.0401    1.7360   -0.4417 C   0  0  0  0  0  0  0  0  0  0  0  0
   -1.6291   -0.1272   -0.1215 C   0  0  0  0  0  0  0  0  0  0  0  0
   -2.7529    0.6124    0.0471 C   0  0  0  0  0  0  0  0  0  0  0  0
   -4.1268    0.0801    0.0738 C   0  0  0  0  0  0  0  0  0  0  0  0
   -4.4038   -1.1656   -0.4784 C   0  0  0  0  0  0  0  0  0  0  0  0
   -5.1515    0.8217    0.6512 C   0  0  0  0  0  0  0  0  0  0  0  0
   -5.7114   -1.6210   -0.4282 C   0  0  0  0  0  0  0  0  0  0  0  0
   -6.4257    0.2774    0.6510 C   0  0  0  0  0  0  0  0  0  0  0  0
    4.1999    0.1568   -1.3938 H   0  0  0  0  0  0  0  0  0  0  0  0
    5.7740   -1.4620   -1.6141 H   0  0  0  0  0  0  0  0  0  0  0  0
    4.6647   -2.4718   -0.6556 H   0  0  0  0  0  0  0  0  0  0  0  0
    5.4128    1.5791    0.0440 H   0  0  0  0  0  0  0  0  0  0  0  0
    4.7966    0.7266    1.4759 H   0  0  0  0  0  0  0  0  0  0  0  0
    5.8187   -1.9069    1.4040 H   0  0  0  0  0  0  0  0  0  0  0  0
    7.1565   -2.0876    0.2436 H   0  0  0  0  0  0  0  0  0  0  0  0
    6.9770    0.1167    1.5057 H   0  0  0  0  0  0  0  0  0  0  0  0
    0.6894   -1.4777    0.2933 H   0  0  0  0  0  0  0  0  0  0  0  0
    3.1857    1.9754   -0.3077 H   0  0  0  0  0  0  0  0  0  0  0  0
   -0.8329    2.4447   -0.6572 H   0  0  0  0  0  0  0  0  0  0  0  0
   -1.6946   -1.2076   -0.2190 H   0  0  0  0  0  0  0  0  0  0  0  0
   -2.6902    1.6874    0.1946 H   0  0  0  0  0  0  0  0  0  0  0  0
   -3.6564   -1.7855   -0.9601 H   0  0  0  0  0  0  0  0  0  0  0  0
   -4.9766    1.7970    1.0937 H   0  0  0  0  0  0  0  0  0  0  0  0
   -5.9811   -2.5841   -0.8491 H   0  0  0  0  0  0  0  0  0  0  0  0
   -7.2598    0.8157    1.0892 H   0  0  0  0  0  0  0  0  0  0  0  0
  1  5  1  0  0  0  0
  1  9  1  0  0  0  0
  2  7  1  0  0  0  0
  2  8  1  0  0  0  0
  2 28  1  0  0  0  0
  3 11  1  0  0  0  0
  3 13  2  0  0  0  0
  4 19  2  0  0  0  0
  4 20  1  0  0  0  0
  5  6  1  0  0  0  0
  5  7  1  0  0  0  0
  5 21  1  0  0  0  0
  6  8  1  0  0  0  0
  6 22  1  0  0  0  0
  6 23  1  0  0  0  0
  7 24  1  0  0  0  0
  7 25  1  0  0  0  0
  8 26  1  0  0  0  0
  8 27  1  0  0  0  0
  9 10  1  0  0  0  0
  9 11  2  0  0  0  0
 10 12  2  0  0  0  0
 10 29  1  0  0  0  0
 11 30  1  0  0  0  0
 12 13  1  0  0  0  0
 12 14  1  0  0  0  0
 13 31  1  0  0  0  0
 14 15  2  3  0  0  0
 14 32  1  0  0  0  0
 15 16  1  0  0  0  0
 15 33  1  0  0  0  0
 16 17  2  0  0  0  0
 16 18  1  0  0  0  0
 17 19  1  0  0  0  0
 17 34  1  0  0  0  0
 18 20  2  0  0  0  0
 18 35  1  0  0  0  0
 19 36  1  0  0  0  0
 20 37  1  0  0  0  0
M  END
> <PUBCHEM_COMPOUND_CID>
49830747

> <PUBCHEM_CONFORMER_RMSD>
0.8

> <PUBCHEM_CONFORMER_DIVERSEORDER>
1
19
21
30
7
20
32
18
11
25
4
15
17
31
10
23
3
12
24
26
5
16
9
14
28
29
22
6
2
8
13
27

> <PUBCHEM_MMFF94_PARTIAL_CHARGES>
29
1 -0.36
10 -0.15
11 0.16
12 0.03
13 0.16
14 -0.18
15 -0.18
16 0.03
17 -0.15
18 -0.15
19 0.16
2 -0.9
20 0.16
28 0.36
29 0.15
3 -0.62
30 0.15
31 0.15
32 0.15
33 0.15
34 0.15
35 0.15
36 0.15
37 0.15
4 -0.62
5 0.28
7 0.27
8 0.27
9 0.08

> <PUBCHEM_EFFECTIVE_ROTOR_COUNT>
5

> <PUBCHEM_PHARMACOPHORE_FEATURES>
8
1 1 acceptor
1 2 cation
1 2 donor
1 3 acceptor
1 4 acceptor
5 2 5 6 7 8 rings
6 3 9 10 11 12 13 rings
6 4 16 17 18 19 20 rings

> <PUBCHEM_HEAVY_ATOM_COUNT>
20

> <PUBCHEM_ATOM_DEF_STEREO_COUNT>
0

> <PUBCHEM_ATOM_UDEF_STEREO_COUNT>
1

> <PUBCHEM_BOND_DEF_STEREO_COUNT>
0

> <PUBCHEM_BOND_UDEF_STEREO_COUNT>
1

> <PUBCHEM_ISOTOPIC_ATOM_COUNT>
0

> <PUBCHEM_COMPONENT_COUNT>
1

> <PUBCHEM_CACTVS_TAUTO_COUNT>
1

> <PUBCHEM_CONFORMER_ID>
02F85B5B00000001

> <PUBCHEM_MMFF94_ENERGY>
62.4067

> <PUBCHEM_FEATURE_SELFOVERLAP>
40.597

> <PUBCHEM_SHAPE_FINGERPRINT>
10 15 14333403463056730506
106641 1 18131626820708004610
11315181 36 18131070450908231377
11524674 6 16630525141976281391
12091667 2 17676488333265911401
12166972 35 18342459269981722201
12236239 1 18272653458846018081
12516196 113 18412544310273522328
12596602 18 17847061086166936626
13288520 33 18408603665463966789
13403585 85 17275105007628353033
13533116 47 18341613750351718736
13668630 136 17967814964068352387
13685833 64 18407761438739614219
13862211 1 18261109651974993690
13968360 50 14634862034012140568
1420 363 17821450153141343026
14251752 14 17603861166113290773
14251764 18 18342176691229479892
14849402 71 18200594842496033464
15348495 7 17060047203029589851
15461852 350 16558742417830336133
15716309 27 18272368676660216831
17093844 174 18411979149087105545
17492 89 17973718074821568738
1813 80 18188219723139425668
18222031 100 18260828198420378400
19141452 34 18201716275752250414
20028762 73 18343020003811269782
20612939 158 17967820491237614429
21130935 74 18272089391890428746
21150785 3 15791738507592626822
21267235 1 18408328773865090268
21709351 56 18334289877745012557
22224240 67 17346590881474069438
23035841 295 18408323276607898227
23081809 10 18333740112687139836
23402539 116 18413105052798291893
23522609 53 18118153353054993509
23536379 177 18202003217958337779
23559900 14 18189614011637390121
2767999 5 11024105438718539755
293599 30 9439402432376448884
3004659 81 18040158414086380230
34797466 226 16916794019855044564
351380 3 18335136488296597947
397830 11 16056018290201574162
406291 66 17460582638305812058
4073 2 18189899888623432458
4214541 1 18411983560034446389
4325135 7 18261115193015484452
4340502 62 16056882420915823326
4463277 17 18409167701474772020
465052 167 18412548712720554478
5104073 3 18129952303222192601
559249 180 18412544306680038543
59682541 35 18339916109141364544
59682541 52 12829480395408132688
67856867 119 18200312255349204177
9971528 1 18261109729147664365
999808 66 17894925057277449883

> <PUBCHEM_SHAPE_MULTIPOLES>
390.78
18.82
1.69
0.77
3.14
0.25
-0.01
-8.15
-3.04
-0.44
0.28
-0.07
0
-0.52

> <PUBCHEM_SHAPE_SELFOVERLAP>
839.06

> <PUBCHEM_SHAPE_VOLUME>
215.1

> <PUBCHEM_COORDINATE_TYPE>
2
5
10

$$$$
