18451073
  -OEChem-10052115183D

 52 56  0     0  0  0  0  0  0999 V2000
   -4.5643    1.9401    0.1294 S   0  0  0  0  0  0  0  0  0  0  0  0
    4.0572    0.3233   -1.1921 O   0  0  0  0  0  0  0  0  0  0  0  0
   -4.2015   -2.5151   -0.1541 N   0  0  0  0  0  0  0  0  0  0  0  0
   -1.8688   -2.3015    0.1629 N   0  0  0  0  0  0  0  0  0  0  0  0
    3.2430    0.2037    1.0015 N   0  0  0  0  0  0  0  0  0  0  0  0
   -9.1303    0.3068    0.0375 N   0  0  0  0  0  0  0  0  0  0  0  0
   -8.8627    1.0594   -1.0434 N   0  0  0  0  0  0  0  0  0  0  0  0
    5.5149    0.0455    0.6153 N   0  0  0  0  0  0  0  0  0  0  0  0
   -3.2909   -0.3097    0.1265 C   0  0  0  0  0  0  0  0  0  0  0  0
   -2.3192    0.7267    0.3283 C   0  0  0  0  0  0  0  0  0  0  0  0
   -4.5776    0.2214    0.0004 C   0  0  0  0  0  0  0  0  0  0  0  0
   -5.6887   -0.6054   -0.2039 C   0  0  0  0  0  0  0  0  0  0  0  0
   -0.8936    0.5923    0.5018 C   0  0  0  0  0  0  0  0  0  0  0  0
   -3.1390   -1.7029    0.0430 C   0  0  0  0  0  0  0  0  0  0  0  0
   -2.8745    1.9841    0.3499 C   0  0  0  0  0  0  0  0  0  0  0  0
   -7.0131   -0.0797   -0.3364 C   0  0  0  0  0  0  0  0  0  0  0  0
   -5.4244   -1.9620   -0.2704 C   0  0  0  0  0  0  0  0  0  0  0  0
   -0.0516    0.6166   -0.6100 C   0  0  0  0  0  0  0  0  0  0  0  0
   -0.3568    0.4387    1.7800 C   0  0  0  0  0  0  0  0  0  0  0  0
    1.8641    0.3341    0.8349 C   0  0  0  0  0  0  0  0  0  0  0  0
    1.3272    0.4876   -0.4435 C   0  0  0  0  0  0  0  0  0  0  0  0
    1.0219    0.3097    1.9466 C   0  0  0  0  0  0  0  0  0  0  0  0
   -8.0561   -0.3950    0.5000 C   0  0  0  0  0  0  0  0  0  0  0  0
   -7.5679    0.8192   -1.2671 C   0  0  0  0  0  0  0  0  0  0  0  0
    4.2567    0.2032    0.0124 C   0  0  0  0  0  0  0  0  0  0  0  0
    6.7815   -0.0072   -0.0133 C   0  0  0  0  0  0  0  0  0  0  0  0
    9.1834   -0.2209    0.1331 C   0  0  0  0  0  0  0  0  0  0  0  0
    7.9352   -0.1701    0.7534 C   0  0  0  0  0  0  0  0  0  0  0  0
    6.8760    0.1049   -1.4005 C   0  0  0  0  0  0  0  0  0  0  0  0
    9.2780   -0.1087   -1.2541 C   0  0  0  0  0  0  0  0  0  0  0  0
    8.1243    0.0542   -2.0208 C   0  0  0  0  0  0  0  0  0  0  0  0
   10.4173   -0.3931    0.9528 C   0  0  0  0  0  0  0  0  0  0  0  0
   -2.3760    2.9350    0.4844 H   0  0  0  0  0  0  0  0  0  0  0  0
   -6.2217   -2.6836   -0.4301 H   0  0  0  0  0  0  0  0  0  0  0  0
   -0.4553    0.7342   -1.6130 H   0  0  0  0  0  0  0  0  0  0  0  0
   -0.9995    0.4165    2.6570 H   0  0  0  0  0  0  0  0  0  0  0  0
    1.9103    0.5156   -1.3527 H   0  0  0  0  0  0  0  0  0  0  0  0
    1.4264    0.1901    2.9485 H   0  0  0  0  0  0  0  0  0  0  0  0
   -8.1356   -1.0386    1.3652 H   0  0  0  0  0  0  0  0  0  0  0  0
   -7.0888    1.3091   -2.1033 H   0  0  0  0  0  0  0  0  0  0  0  0
   -1.8146   -3.3098    0.0960 H   0  0  0  0  0  0  0  0  0  0  0  0
   -1.0227   -1.7790    0.3116 H   0  0  0  0  0  0  0  0  0  0  0  0
    3.5586    0.0951    1.9623 H   0  0  0  0  0  0  0  0  0  0  0  0
  -10.0715    0.3194    0.4098 H   0  0  0  0  0  0  0  0  0  0  0  0
    5.5278   -0.0428    1.6282 H   0  0  0  0  0  0  0  0  0  0  0  0
    7.8629   -0.2554    1.8354 H   0  0  0  0  0  0  0  0  0  0  0  0
    6.0321    0.2332   -2.0630 H   0  0  0  0  0  0  0  0  0  0  0  0
   10.2449   -0.1445   -1.7491 H   0  0  0  0  0  0  0  0  0  0  0  0
    8.1994    0.1421   -3.1009 H   0  0  0  0  0  0  0  0  0  0  0  0
   10.7940    0.5829    1.2744 H   0  0  0  0  0  0  0  0  0  0  0  0
   10.2188   -1.0034    1.8405 H   0  0  0  0  0  0  0  0  0  0  0  0
   11.2033   -0.9018    0.3842 H   0  0  0  0  0  0  0  0  0  0  0  0
  1 11  1  0  0  0  0
  1 15  1  0  0  0  0
  2 25  2  0  0  0  0
  3 14  2  0  0  0  0
  3 17  1  0  0  0  0
  4 14  1  0  0  0  0
  4 41  1  0  0  0  0
  4 42  1  0  0  0  0
  5 20  1  0  0  0  0
  5 25  1  0  0  0  0
  5 43  1  0  0  0  0
  6  7  1  0  0  0  0
  6 23  1  0  0  0  0
  6 44  1  0  0  0  0
  7 24  2  0  0  0  0
  8 25  1  0  0  0  0
  8 26  1  0  0  0  0
  8 45  1  0  0  0  0
  9 10  1  0  0  0  0
  9 11  2  0  0  0  0
  9 14  1  0  0  0  0
 10 13  1  0  0  0  0
 10 15  2  0  0  0  0
 11 12  1  0  0  0  0
 12 16  1  0  0  0  0
 12 17  2  0  0  0  0
 13 18  2  0  0  0  0
 13 19  1  0  0  0  0
 15 33  1  0  0  0  0
 16 23  2  0  0  0  0
 16 24  1  0  0  0  0
 17 34  1  0  0  0  0
 18 21  1  0  0  0  0
 18 35  1  0  0  0  0
 19 22  2  0  0  0  0
 19 36  1  0  0  0  0
 20 21  2  0  0  0  0
 20 22  1  0  0  0  0
 21 37  1  0  0  0  0
 22 38  1  0  0  0  0
 23 39  1  0  0  0  0
 24 40  1  0  0  0  0
 26 28  1  0  0  0  0
 26 29  2  0  0  0  0
 27 28  2  0  0  0  0
 27 30  1  0  0  0  0
 27 32  1  0  0  0  0
 28 46  1  0  0  0  0
 29 31  1  0  0  0  0
 29 47  1  0  0  0  0
 30 31  2  0  0  0  0
 30 48  1  0  0  0  0
 31 49  1  0  0  0  0
 32 50  1  0  0  0  0
 32 51  1  0  0  0  0
 32 52  1  0  0  0  0
M  END
> <PUBCHEM_COMPOUND_CID>
18451073

> <PUBCHEM_CONFORMER_RMSD>
0.8

> <PUBCHEM_CONFORMER_DIVERSEORDER>
1
11
4
10
6
21
23
9
5
14
15
20
12
8
22
7
3
16
19
17
13
2
18

> <PUBCHEM_MMFF94_PARTIAL_CHARGES>
48
1 -0.08
10 -0.05
11 0.04
12 0.05
13 0.05
14 0.41
15 -0.11
16 -0.05
17 0.16
18 -0.15
19 -0.15
2 -0.57
20 0.12
21 -0.15
22 -0.15
23 -0.3
24 0.14
25 0.69
26 0.12
27 -0.14
28 -0.15
29 -0.15
3 -0.62
30 -0.15
31 -0.15
32 0.14
33 0.15
34 0.15
35 0.15
36 0.15
37 0.15
38 0.15
39 0.15
4 -0.9
40 0.15
41 0.4
42 0.4
43 0.37
44 0.27
45 0.37
46 0.15
47 0.15
48 0.15
49 0.15
5 -0.55
6 0.3
7 -0.71
8 -0.55

> <PUBCHEM_EFFECTIVE_ROTOR_COUNT>
6

> <PUBCHEM_PHARMACOPHORE_FEATURES>
12
1 2 acceptor
1 4 donor
1 5 donor
1 6 donor
1 7 acceptor
1 8 donor
3 3 4 14 cation
5 1 9 10 11 15 rings
5 6 7 16 23 24 rings
6 13 18 19 20 21 22 rings
6 26 27 28 29 30 31 rings
6 3 9 11 12 14 17 rings

> <PUBCHEM_HEAVY_ATOM_COUNT>
32

> <PUBCHEM_ATOM_DEF_STEREO_COUNT>
0

> <PUBCHEM_ATOM_UDEF_STEREO_COUNT>
0

> <PUBCHEM_BOND_DEF_STEREO_COUNT>
0

> <PUBCHEM_BOND_UDEF_STEREO_COUNT>
0

> <PUBCHEM_ISOTOPIC_ATOM_COUNT>
0

> <PUBCHEM_COMPONENT_COUNT>
1

> <PUBCHEM_CACTVS_TAUTO_COUNT>
6

> <PUBCHEM_CONFORMER_ID>
01198A8100000001

> <PUBCHEM_MMFF94_ENERGY>
99.7842

> <PUBCHEM_FEATURE_SELFOVERLAP>
61.012

> <PUBCHEM_SHAPE_FINGERPRINT>
10076449 9 18060701684865763065
10299344 5 18113336414731166130
10369192 42 14418126319061792667
106641 1 12679459794366150560
10674148 151 18411133653771074962
11315181 36 18333736827295679681
12082328 90 18130790010618257964
12089408 11 17822010930273874710
12236239 1 17676200278610345561
12522641 33 17022620858349850202
12643181 29 18131349739346246319
12741549 16 16343984706849146217
12758862 11 18201434817612186777
13885169 127 17346605144786127129
14040221 8 18341338820309568220
14118638 360 18338235955714077442
14150022 121 12463303474688758587
14251764 46 18410854360616540513
14294032 229 18189050902839562613
15065858 18 17632856430352064126
15183329 4 18187367636530767434
15247644 1 17346599677177111710
15419008 91 17987782065618116512
15510794 2 17632580427685772286
16728433 281 18044648699395502325
18603816 31 15913318127031380669
20105231 36 18261679255223335683
20609170 92 18263355894549079781
21150785 3 17749108889498629920
21360443 120 17967248676667211083
21362267 313 11815354675617754158
21792934 111 16415473857733414112
21792961 116 17775568606766993848
232437 2 16950282909888671211
23559900 14 18200586042687785777
23576562 1 14563385093308554022
249057 3 18409730685661324748
3092352 35 17022901263383844707
335352 9 18410005547332294463
4017518 198 17917990582103526551
4325135 7 18113617880917352310
4625314 4 18271523199399962712
504579 68 18113339717334176628
5283156 175 18187363221262208642
54039377 194 18114188587983046411
58083652 198 16486975141505246010
58902169 19 17676210217038328350
59521270 166 18335135354868343853
6081469 158 18411138022480944764
6126387 218 15482677862203976363
6691757 9 18411429406036852411
67123 10 15936411143478543425
9663363 56 17060616694645035744
9962374 69 15625927760604557776

> <PUBCHEM_SHAPE_MULTIPOLES>
626.64
34.14
1.54
1.35
45.15
0.58
0.07
2.3
8.4
-3.44
-0.04
2
-0.18
0.4

> <PUBCHEM_SHAPE_SELFOVERLAP>
1389.926

> <PUBCHEM_SHAPE_VOLUME>
337.5

> <PUBCHEM_COORDINATE_TYPE>
2
5
10

$$$$
