23647255
  -OEChem-10062121573D

 37 39  0     0  0  0  0  0  0999 V2000
    1.8808   -3.0379    1.4529 F   0  0  0  0  0  0  0  0  0  0  0  0
   -5.1870   -0.7076    1.2315 O   0  0  0  0  0  0  0  0  0  0  0  0
   -3.4735    0.5703    2.0045 O   0  0  0  0  0  0  0  0  0  0  0  0
   -1.8251    1.2657   -0.1228 N   0  0  0  0  0  0  0  0  0  0  0  0
    2.8888    1.4266    0.0227 N   0  0  0  0  0  0  0  0  0  0  0  0
    0.5460    1.3223   -0.0483 N   0  0  0  0  0  0  0  0  0  0  0  0
    1.6937    3.4392   -0.1400 N   0  0  0  0  0  0  0  0  0  0  0  0
   -2.1597   -0.0302   -0.5754 C   0  0  0  0  0  0  0  0  0  0  0  0
   -3.1702   -0.7663    0.0435 C   0  0  0  0  0  0  0  0  0  0  0  0
   -0.6215    1.9939   -0.1278 C   0  0  0  0  0  0  0  0  0  0  0  0
   -1.4646   -0.5720   -1.6567 C   0  0  0  0  0  0  0  0  0  0  0  0
    3.2321    0.0650    0.1173 C   0  0  0  0  0  0  0  0  0  0  0  0
    1.6482    2.0957   -0.0592 C   0  0  0  0  0  0  0  0  0  0  0  0
   -3.4855   -2.0439   -0.4192 C   0  0  0  0  0  0  0  0  0  0  0  0
   -1.7801   -1.8495   -2.1193 C   0  0  0  0  0  0  0  0  0  0  0  0
   -0.7111    3.3682   -0.2147 C   0  0  0  0  0  0  0  0  0  0  0  0
   -2.7904   -2.5855   -1.5005 C   0  0  0  0  0  0  0  0  0  0  0  0
    2.3688   -0.8294    0.7503 C   0  0  0  0  0  0  0  0  0  0  0  0
    4.4356   -0.3900   -0.4215 C   0  0  0  0  0  0  0  0  0  0  0  0
    0.4910    4.0458   -0.2168 C   0  0  0  0  0  0  0  0  0  0  0  0
   -3.9151   -0.2290    1.1752 C   0  0  0  0  0  0  0  0  0  0  0  0
    2.7094   -2.1788    0.8449 C   0  0  0  0  0  0  0  0  0  0  0  0
    4.7761   -1.7391   -0.3270 C   0  0  0  0  0  0  0  0  0  0  0  0
    3.9131   -2.6337    0.3062 C   0  0  0  0  0  0  0  0  0  0  0  0
   -2.5602    1.7213    0.4102 H   0  0  0  0  0  0  0  0  0  0  0  0
   -0.6818   -0.0151   -2.1647 H   0  0  0  0  0  0  0  0  0  0  0  0
   -4.2577   -2.6487    0.0490 H   0  0  0  0  0  0  0  0  0  0  0  0
    3.6767    2.0499   -0.1269 H   0  0  0  0  0  0  0  0  0  0  0  0
   -1.2403   -2.2706   -2.9624 H   0  0  0  0  0  0  0  0  0  0  0  0
   -1.6549    3.8952   -0.2790 H   0  0  0  0  0  0  0  0  0  0  0  0
   -3.0339   -3.5813   -1.8593 H   0  0  0  0  0  0  0  0  0  0  0  0
    1.4430   -0.5141    1.2195 H   0  0  0  0  0  0  0  0  0  0  0  0
    5.1166    0.2966   -0.9181 H   0  0  0  0  0  0  0  0  0  0  0  0
    0.5213    5.1282   -0.2824 H   0  0  0  0  0  0  0  0  0  0  0  0
    5.7130   -2.0936   -0.7466 H   0  0  0  0  0  0  0  0  0  0  0  0
    4.1779   -3.6844    0.3797 H   0  0  0  0  0  0  0  0  0  0  0  0
   -5.6816   -0.3411    1.9954 H   0  0  0  0  0  0  0  0  0  0  0  0
  1 22  1  0  0  0  0
  2 21  1  0  0  0  0
  2 37  1  0  0  0  0
  3 21  2  0  0  0  0
  4  8  1  0  0  0  0
  4 10  1  0  0  0  0
  4 25  1  0  0  0  0
  5 12  1  0  0  0  0
  5 13  1  0  0  0  0
  5 28  1  0  0  0  0
  6 10  2  0  0  0  0
  6 13  1  0  0  0  0
  7 13  2  0  0  0  0
  7 20  1  0  0  0  0
  8  9  1  0  0  0  0
  8 11  2  0  0  0  0
  9 14  2  0  0  0  0
  9 21  1  0  0  0  0
 10 16  1  0  0  0  0
 11 15  1  0  0  0  0
 11 26  1  0  0  0  0
 12 18  2  0  0  0  0
 12 19  1  0  0  0  0
 14 17  1  0  0  0  0
 14 27  1  0  0  0  0
 15 17  2  0  0  0  0
 15 29  1  0  0  0  0
 16 20  2  0  0  0  0
 16 30  1  0  0  0  0
 17 31  1  0  0  0  0
 18 22  1  0  0  0  0
 18 32  1  0  0  0  0
 19 23  2  0  0  0  0
 19 33  1  0  0  0  0
 20 34  1  0  0  0  0
 22 24  2  0  0  0  0
 23 24  1  0  0  0  0
 23 35  1  0  0  0  0
 24 36  1  0  0  0  0
M  END
> <PUBCHEM_COMPOUND_CID>
23647255

> <PUBCHEM_CONFORMER_RMSD>
1

> <PUBCHEM_CONFORMER_DIVERSEORDER>
1
9
66
69
16
72
91
85
54
10
38
42
31
93
75
76
71
34
50
2
63
78
95
32
36
24
44
35
100
74
59
33
11
101
87
103
13
22
97
48
41
45
52
25
4
99
62
77
21
55
86
94
64
92
79
57
17
60
96
88
83
30
102
70
3
73
46
51
82
27
104
81
53
39
12
84
47
5
80
23
40
49
29
89
37
68
28
6
58
90
56
26
61
19
7
67
20
98
15
8
43
14
65
18

> <PUBCHEM_MMFF94_PARTIAL_CHARGES>
37
1 -0.19
10 0.41
11 -0.15
12 0.1
13 0.72
14 -0.15
15 -0.15
16 -0.15
17 -0.15
18 -0.15
19 -0.15
2 -0.65
20 0.16
21 0.63
22 0.19
23 -0.15
24 -0.15
25 0.4
26 0.15
27 0.15
28 0.4
29 0.15
3 -0.57
30 0.15
31 0.15
32 0.15
33 0.15
34 0.15
35 0.15
36 0.15
37 0.5
4 -0.6
5 -0.6
6 -0.62
7 -0.62
8 0.1
9 0.09

> <PUBCHEM_EFFECTIVE_ROTOR_COUNT>
5

> <PUBCHEM_PHARMACOPHORE_FEATURES>
9
1 2 acceptor
1 3 acceptor
1 4 donor
1 5 donor
3 2 3 21 anion
4 5 6 7 13 cation
6 12 18 19 22 23 24 rings
6 6 7 10 13 16 20 rings
6 8 9 11 14 15 17 rings

> <PUBCHEM_HEAVY_ATOM_COUNT>
24

> <PUBCHEM_ATOM_DEF_STEREO_COUNT>
0

> <PUBCHEM_ATOM_UDEF_STEREO_COUNT>
0

> <PUBCHEM_BOND_DEF_STEREO_COUNT>
0

> <PUBCHEM_BOND_UDEF_STEREO_COUNT>
0

> <PUBCHEM_ISOTOPIC_ATOM_COUNT>
0

> <PUBCHEM_COMPONENT_COUNT>
1

> <PUBCHEM_CACTVS_TAUTO_COUNT>
13

> <PUBCHEM_CONFORMER_ID>
0168D41700000001

> <PUBCHEM_MMFF94_ENERGY>
92.1964

> <PUBCHEM_FEATURE_SELFOVERLAP>
45.728

> <PUBCHEM_SHAPE_FINGERPRINT>
10616163 171 18049721811484802566
11578080 2 17772723122393869929
11725454 13 13901635065356410257
12107183 9 18341908363881074201
12553582 1 18409720755807673586
12633257 1 17203604865626887506
13533116 47 18124314072135984771
13583140 156 18261680380578307739
138480 1 14737321807115118988
14279260 333 17972036943165748490
14844126 61 17976802213078502698
15403338 16 18333453115005193115
15537594 2 18411429427089546014
16110190 28 18273498966324115006
17349148 13 17632289116901605813
17818456 19 17846228769287591121
1813 80 18340498802157358684
19930381 70 18047468121495416019
20291156 8 18411694383553386390
21427221 339 18129398110380137081
2255824 54 17976816815682842396
235170 7 16081088169180259030
23598288 3 17974562503201966850
23598291 2 18200314458408457541
23728640 28 17763724512861872586
352729 6 17547565985945510996
3737641 26 18338242553216983958
392239 28 18339060684646915592
463206 1 18335424620588856938
56633871 153 18273218560515336103
7097593 13 18199187463364264029

> <PUBCHEM_SHAPE_MULTIPOLES>
454.97
8.81
4.5
1.42
1.13
3.59
-0.04
-6.9
2.06
1.78
-0.51
-1.5
-0.9
-1.43

> <PUBCHEM_SHAPE_SELFOVERLAP>
994.506

> <PUBCHEM_SHAPE_VOLUME>
243.8

> <PUBCHEM_COORDINATE_TYPE>
2
5
10

$$$$
