24905210
  -OEChem-10052115153D

 31 34  0     0  0  0  0  0  0999 V2000
    2.5053    1.7205    0.0996 N   0  0  0  0  0  0  0  0  0  0  0  0
    1.1756    1.8976   -0.0129 N   0  0  0  0  0  0  0  0  0  0  0  0
   -4.7030   -0.1881   -0.5434 N   0  0  0  0  0  0  0  0  0  0  0  0
   -2.6211    0.1470   -1.7079 N   0  0  0  0  0  0  0  0  0  0  0  0
    4.1320   -0.0699    0.2013 N   0  0  0  0  0  0  0  0  0  0  0  0
    3.0710   -2.2618    0.0582 N   0  0  0  0  0  0  0  0  0  0  0  0
    0.7102   -2.5405   -0.1562 N   0  0  0  0  0  0  0  0  0  0  0  0
    0.7001    0.6494   -0.0830 C   0  0  0  0  0  0  0  0  0  0  0  0
    1.7150   -0.3232   -0.0162 C   0  0  0  0  0  0  0  0  0  0  0  0
   -0.7115    0.4307   -0.2115 C   0  0  0  0  0  0  0  0  0  0  0  0
    2.8823    0.4105    0.1028 C   0  0  0  0  0  0  0  0  0  0  0  0
   -2.8878    0.0830    0.7289 C   0  0  0  0  0  0  0  0  0  0  0  0
   -1.5132    0.2956    0.9206 C   0  0  0  0  0  0  0  0  0  0  0  0
   -3.3500    0.0230   -0.5826 C   0  0  0  0  0  0  0  0  0  0  0  0
    1.8381   -1.7086   -0.0372 C   0  0  0  0  0  0  0  0  0  0  0  0
   -1.3053    0.3494   -1.4639 C   0  0  0  0  0  0  0  0  0  0  0  0
   -4.0162   -0.1007    1.5712 C   0  0  0  0  0  0  0  0  0  0  0  0
    3.3706    2.8716    0.2015 C   0  0  0  0  0  0  0  0  0  0  0  0
   -5.1185   -0.2655    0.7607 C   0  0  0  0  0  0  0  0  0  0  0  0
    4.1263   -1.4201    0.1700 C   0  0  0  0  0  0  0  0  0  0  0  0
   -1.0967    0.3508    1.9223 H   0  0  0  0  0  0  0  0  0  0  0  0
   -0.7071    0.4500   -2.3674 H   0  0  0  0  0  0  0  0  0  0  0  0
    3.2402    3.4785   -0.6980 H   0  0  0  0  0  0  0  0  0  0  0  0
    3.0831    3.4383    1.0908 H   0  0  0  0  0  0  0  0  0  0  0  0
    4.4116    2.5522    0.2858 H   0  0  0  0  0  0  0  0  0  0  0  0
   -4.0263   -0.1124    2.6525 H   0  0  0  0  0  0  0  0  0  0  0  0
   -5.3022   -0.2739   -1.3525 H   0  0  0  0  0  0  0  0  0  0  0  0
   -6.1605   -0.4303    0.9960 H   0  0  0  0  0  0  0  0  0  0  0  0
    5.0983   -1.8960    0.2443 H   0  0  0  0  0  0  0  0  0  0  0  0
   -0.2208   -2.1574   -0.2284 H   0  0  0  0  0  0  0  0  0  0  0  0
    0.8445   -3.5427   -0.1674 H   0  0  0  0  0  0  0  0  0  0  0  0
  1  2  1  0  0  0  0
  1 11  1  0  0  0  0
  1 18  1  0  0  0  0
  2  8  2  0  0  0  0
  3 14  1  0  0  0  0
  3 19  1  0  0  0  0
  3 27  1  0  0  0  0
  4 14  2  0  0  0  0
  4 16  1  0  0  0  0
  5 11  2  0  0  0  0
  5 20  1  0  0  0  0
  6 15  1  0  0  0  0
  6 20  2  0  0  0  0
  7 15  1  0  0  0  0
  7 30  1  0  0  0  0
  7 31  1  0  0  0  0
  8  9  1  0  0  0  0
  8 10  1  0  0  0  0
  9 11  1  0  0  0  0
  9 15  2  0  0  0  0
 10 13  1  0  0  0  0
 10 16  2  0  0  0  0
 12 13  2  0  0  0  0
 12 14  1  0  0  0  0
 12 17  1  0  0  0  0
 13 21  1  0  0  0  0
 16 22  1  0  0  0  0
 17 19  2  0  0  0  0
 17 26  1  0  0  0  0
 18 23  1  0  0  0  0
 18 24  1  0  0  0  0
 18 25  1  0  0  0  0
 19 28  1  0  0  0  0
 20 29  1  0  0  0  0
M  END
> <PUBCHEM_COMPOUND_CID>
24905210

> <PUBCHEM_CONFORMER_RMSD>
0.6

> <PUBCHEM_CONFORMER_DIVERSEORDER>
1
2

> <PUBCHEM_MMFF94_PARTIAL_CHARGES>
26
1 0.31
10 0.05
11 0.11
13 -0.15
14 0.11
15 0.41
16 0.16
17 -0.15
18 0.26
19 -0.3
2 -0.71
20 0.47
21 0.15
22 0.15
26 0.15
27 0.27
28 0.15
29 0.15
3 0.03
30 0.4
31 0.4
4 -0.57
5 -0.57
6 -0.62
7 -0.9
8 0.23

> <PUBCHEM_EFFECTIVE_ROTOR_COUNT>
1

> <PUBCHEM_PHARMACOPHORE_FEATURES>
11
1 2 acceptor
1 3 donor
1 7 cation
1 7 donor
3 1 5 11 cation
3 3 4 14 cation
3 5 6 20 cation
5 1 2 8 9 11 rings
5 3 12 14 17 19 rings
6 4 10 12 13 14 16 rings
6 5 6 9 11 15 20 rings

> <PUBCHEM_HEAVY_ATOM_COUNT>
20

> <PUBCHEM_ATOM_DEF_STEREO_COUNT>
0

> <PUBCHEM_ATOM_UDEF_STEREO_COUNT>
0

> <PUBCHEM_BOND_DEF_STEREO_COUNT>
0

> <PUBCHEM_BOND_UDEF_STEREO_COUNT>
0

> <PUBCHEM_ISOTOPIC_ATOM_COUNT>
0

> <PUBCHEM_COMPONENT_COUNT>
1

> <PUBCHEM_CACTVS_TAUTO_COUNT>
14

> <PUBCHEM_CONFORMER_ID>
017C05FA00000001

> <PUBCHEM_MMFF94_ENERGY>
45.1334

> <PUBCHEM_FEATURE_SELFOVERLAP>
56.214

> <PUBCHEM_SHAPE_FINGERPRINT>
11471102 20 18410011039835959952
11796584 16 16588860162395845786
12107183 9 17767135202727400673
12236239 1 17632295678920666841
12390115 104 17691132947627702040
12553582 1 18270113509840228006
12670546 56 17917426515041336905
13140716 1 18266733770263052482
13533116 47 18342459266308577755
13583140 156 18200032988370357385
13631057 29 17625250193431459423
13862211 1 18338795603555709090
14251717 144 18411699876547759842
14252887 29 18040439914395311049
14289901 80 18413106182469701345
14386348 63 17748830700419924515
15219456 202 18113894974769146597
15342168 16 18119814865490304388
15375462 189 17989202633622200955
15961568 22 16153996871090981052
16945 1 18411131433969236548
1813 80 17986968349371087750
18186145 218 18343018930200729788
18785283 64 18188773971890213060
19141452 34 18113627807051374115
200 152 18343014476562074309
204376 136 18193275423706900816
20600515 1 16081929385848981413
20645477 70 18335414677412064223
21065201 7 16588017996554966913
21267235 1 18341057315826645038
22112679 90 17131540713158223629
2255824 54 18342740736795142092
23557571 272 17095236995467110213
23559900 14 16805318860303032546
26918003 58 18408887326204588971
2748010 2 17980184306924827980
31174 14 18335139782599622660
3286 77 18261396615492387294
33824 294 18408040727915600986
458136 41 18336551641656074788
474 4 17985539198539724160
5104073 3 18408891741541882561
6049 1 17967527939524358205
633830 44 18059306455632764684
7495541 125 17821732736694291666
77492 1 17704067412899480789
8272917 22 18342465815822389573
9709674 26 18114470071206696371
9981440 41 15690374783968342368

> <PUBCHEM_SHAPE_MULTIPOLES>
376.72
9.22
2.12
1.11
5.56
0.12
0.16
-0.7
-1.67
-3.66
-0.09
1.36
0.06
0.18

> <PUBCHEM_SHAPE_SELFOVERLAP>
860.229

> <PUBCHEM_SHAPE_VOLUME>
191.5

> <PUBCHEM_COORDINATE_TYPE>
2
5
10

$$$$
