49830677
  -OEChem-10052115183D

 31 34  0     0  0  0  0  0  0999 V2000
    6.5714    0.5554    0.4711 Br  0  0  0  0  0  0  0  0  0  0  0  0
   -3.0621    1.6447   -0.1775 N   0  0  0  0  0  0  0  0  0  0  0  0
    0.9478   -0.8065   -0.4889 N   0  0  0  0  0  0  0  0  0  0  0  0
    3.2322   -1.5981   -0.6525 N   0  0  0  0  0  0  0  0  0  0  0  0
    3.8165    0.9984    0.4571 N   0  0  0  0  0  0  0  0  0  0  0  0
   -1.1194    0.5764   -0.0682 C   0  0  0  0  0  0  0  0  0  0  0  0
   -2.1623   -0.3817    0.0707 C   0  0  0  0  0  0  0  0  0  0  0  0
   -3.3708    0.3146   -0.0014 C   0  0  0  0  0  0  0  0  0  0  0  0
    0.3322    0.3436   -0.0594 C   0  0  0  0  0  0  0  0  0  0  0  0
   -1.7039    1.8128   -0.2191 C   0  0  0  0  0  0  0  0  0  0  0  0
    1.3056    1.2218    0.3709 C   0  0  0  0  0  0  0  0  0  0  0  0
   -2.1943   -1.7787    0.2514 C   0  0  0  0  0  0  0  0  0  0  0  0
   -4.6145   -0.3189    0.0986 C   0  0  0  0  0  0  0  0  0  0  0  0
    2.3015   -0.6778   -0.3399 C   0  0  0  0  0  0  0  0  0  0  0  0
    2.5526    0.5790    0.1949 C   0  0  0  0  0  0  0  0  0  0  0  0
   -4.0214    2.7208   -0.3032 C   0  0  0  0  0  0  0  0  0  0  0  0
   -3.4312   -2.4258    0.3530 C   0  0  0  0  0  0  0  0  0  0  0  0
   -4.6214   -1.7052    0.2776 C   0  0  0  0  0  0  0  0  0  0  0  0
    4.4802   -1.1603   -0.3838 C   0  0  0  0  0  0  0  0  0  0  0  0
    4.7613    0.0858    0.1486 C   0  0  0  0  0  0  0  0  0  0  0  0
   -1.2700    2.7953   -0.3545 H   0  0  0  0  0  0  0  0  0  0  0  0
    0.4836   -1.6167   -0.8749 H   0  0  0  0  0  0  0  0  0  0  0  0
    1.1428    2.2140    0.7700 H   0  0  0  0  0  0  0  0  0  0  0  0
   -1.2832   -2.3643    0.3240 H   0  0  0  0  0  0  0  0  0  0  0  0
   -5.5448    0.2362    0.0407 H   0  0  0  0  0  0  0  0  0  0  0  0
   -4.6486    2.5234   -1.1762 H   0  0  0  0  0  0  0  0  0  0  0  0
   -4.6238    2.7538    0.6082 H   0  0  0  0  0  0  0  0  0  0  0  0
   -3.4947    3.6697   -0.4330 H   0  0  0  0  0  0  0  0  0  0  0  0
   -3.4621   -3.5029    0.4948 H   0  0  0  0  0  0  0  0  0  0  0  0
   -5.5709   -2.2281    0.3595 H   0  0  0  0  0  0  0  0  0  0  0  0
    5.2653   -1.8718   -0.6206 H   0  0  0  0  0  0  0  0  0  0  0  0
  1 20  1  0  0  0  0
  2  8  1  0  0  0  0
  2 10  1  0  0  0  0
  2 16  1  0  0  0  0
  3  9  1  0  0  0  0
  3 14  1  0  0  0  0
  3 22  1  0  0  0  0
  4 14  2  0  0  0  0
  4 19  1  0  0  0  0
  5 15  2  0  0  0  0
  5 20  1  0  0  0  0
  6  7  1  0  0  0  0
  6  9  1  0  0  0  0
  6 10  2  0  0  0  0
  7  8  1  0  0  0  0
  7 12  2  0  0  0  0
  8 13  2  0  0  0  0
  9 11  2  0  0  0  0
 10 21  1  0  0  0  0
 11 15  1  0  0  0  0
 11 23  1  0  0  0  0
 12 17  1  0  0  0  0
 12 24  1  0  0  0  0
 13 18  1  0  0  0  0
 13 25  1  0  0  0  0
 14 15  1  0  0  0  0
 16 26  1  0  0  0  0
 16 27  1  0  0  0  0
 16 28  1  0  0  0  0
 17 18  2  0  0  0  0
 17 29  1  0  0  0  0
 18 30  1  0  0  0  0
 19 20  2  0  0  0  0
 19 31  1  0  0  0  0
M  END
> <PUBCHEM_COMPOUND_CID>
49830677

> <PUBCHEM_CONFORMER_RMSD>
0.6

> <PUBCHEM_CONFORMER_DIVERSEORDER>
2
5
3
1
4
6

> <PUBCHEM_MMFF94_PARTIAL_CHARGES>
26
1 -0.11
10 -0.3
11 -0.15
12 -0.15
13 -0.15
14 0.11
15 0.26
16 0.26
17 -0.15
18 -0.15
19 0.16
2 0.05
20 0.42
21 0.15
22 0.27
23 0.15
24 0.15
25 0.15
29 0.15
3 0.03
30 0.15
31 0.15
4 -0.57
5 -0.57
8 -0.15
9 -0.15

> <PUBCHEM_EFFECTIVE_ROTOR_COUNT>
1

> <PUBCHEM_PHARMACOPHORE_FEATURES>
9
1 1 hydrophobe
1 2 cation
1 3 donor
1 5 acceptor
3 3 4 14 cation
5 2 6 7 8 10 rings
5 3 9 11 14 15 rings
6 4 5 14 15 19 20 rings
6 7 8 12 13 17 18 rings

> <PUBCHEM_HEAVY_ATOM_COUNT>
20

> <PUBCHEM_ATOM_DEF_STEREO_COUNT>
0

> <PUBCHEM_ATOM_UDEF_STEREO_COUNT>
0

> <PUBCHEM_BOND_DEF_STEREO_COUNT>
0

> <PUBCHEM_BOND_UDEF_STEREO_COUNT>
0

> <PUBCHEM_ISOTOPIC_ATOM_COUNT>
0

> <PUBCHEM_COMPONENT_COUNT>
1

> <PUBCHEM_CACTVS_TAUTO_COUNT>
3

> <PUBCHEM_CONFORMER_ID>
02F85B1500000002

> <PUBCHEM_MMFF94_ENERGY>
38.013

> <PUBCHEM_FEATURE_SELFOVERLAP>
45.896

> <PUBCHEM_SHAPE_FINGERPRINT>
10319926 262 18338780236104078954
10411042 1 18048318036164171283
105312 117 17605542263974531749
10616163 171 18410014333949775663
10835480 77 18342450414170575048
11315181 36 17968094248368875872
11405975 8 18339361855684340432
12107183 9 17757260488634742562
12236239 1 17167859777004369354
12403259 415 18131344246220075600
12507560 40 18343301457491627846
12616971 3 16732993007140095540
13167823 11 18260545611052491034
13288520 33 18409730685560805499
13583140 156 18060411430632910300
13675066 3 18130783469314065432
14341114 176 18341338829088497440
14508225 48 18264194968019019717
15042514 8 18263651822202166747
15196674 1 18411700946284662934
15375358 24 18272087141369166046
15788980 27 17894633643218310152
15961568 22 17823135799669096876
17804303 29 18411986875258374133
17844677 252 18410299129162994504
1813 80 17385728001663585270
18927931 339 18409171043038534159
19489759 90 18113333119873909352
200 152 17561078107930224511
20510252 161 18342177744039929545
20645477 56 18335983073843491957
20645477 70 17489309621020871486
20681677 155 18261674770765586937
21033648 29 17703774921521599536
21065198 57 18411981330181379348
21065199 12 18413951689404381690
21065201 7 18334572413066747242
21267235 1 18336836371827612019
221490 88 18338803424057567832
2297311 6 18340498832074429956
23175994 123 17418379090483064273
23402539 116 18186795902604289350
23557571 272 18412831278349978236
23559900 14 18411693322443652961
26918003 58 18343864432861516058
2871803 45 18335135414496953027
34797466 226 18058745705509785612
350125 39 18340208608645326848
3545911 37 18413671301107339264
4073 2 18260834804396643138
4214541 1 18410293588217066377
4325135 7 18260833739318392332
5104073 3 18341892948821228538
559249 180 18189611653204725738
573450 72 18114170909195639842
67856867 119 18042690679364828716
77779 3 18410857646572568052
9709674 26 18342181024851780615

> <PUBCHEM_SHAPE_MULTIPOLES>
397.61
12.74
2.3
0.7
12.92
0.24
0.01
-0.71
1.23
-3.22
-0.07
0.22
-0.04
1.03

> <PUBCHEM_SHAPE_SELFOVERLAP>
886.345

> <PUBCHEM_SHAPE_VOLUME>
219.5

> <PUBCHEM_COORDINATE_TYPE>
2
5
10

$$$$
