24899915
  -OEChem-10062122023D

 33 35  0     0  0  0  0  0  0999 V2000
    4.1547   -1.2653   -0.4228 S   0  0  0  0  0  0  0  0  0  0  0  0
   -2.4875    1.8310   -0.2749 O   0  0  0  0  0  0  0  0  0  0  0  0
    3.3026   -0.6646    0.8481 O   0  0  0  0  0  0  0  0  0  0  0  0
    1.3475    3.5701    0.0774 O   0  0  0  0  0  0  0  0  0  0  0  0
   -5.4534   -1.9006   -0.2730 O   0  0  0  0  0  0  0  0  0  0  0  0
   -1.1863    3.6849   -0.3017 O   0  0  0  0  0  0  0  0  0  0  0  0
    5.2944   -2.2005    0.2778 O   0  0  0  0  0  0  0  0  0  0  0  0
    3.2895   -2.1280   -1.2063 O   0  0  0  0  0  0  0  0  0  0  0  0
    4.8375   -0.1538   -1.0592 O   0  0  0  0  0  0  0  0  0  0  0  0
   -1.5570   -0.3937    0.1163 C   0  0  0  0  0  0  0  0  0  0  0  0
   -0.2257    0.2130    0.2390 C   0  0  0  0  0  0  0  0  0  0  0  0
   -0.0862    1.6050    0.0983 C   0  0  0  0  0  0  0  0  0  0  0  0
   -2.6516    0.4361   -0.1378 C   0  0  0  0  0  0  0  0  0  0  0  0
   -1.8247   -1.7674    0.2357 C   0  0  0  0  0  0  0  0  0  0  0  0
    0.9421   -0.5308    0.4933 C   0  0  0  0  0  0  0  0  0  0  0  0
    1.1697    2.2238    0.2081 C   0  0  0  0  0  0  0  0  0  0  0  0
   -1.2595    2.4702   -0.1716 C   0  0  0  0  0  0  0  0  0  0  0  0
   -3.9565   -0.0461   -0.2709 C   0  0  0  0  0  0  0  0  0  0  0  0
    2.1925    0.0852    0.6023 C   0  0  0  0  0  0  0  0  0  0  0  0
   -3.1262   -2.2696    0.1048 C   0  0  0  0  0  0  0  0  0  0  0  0
    2.3061    1.4619    0.4598 C   0  0  0  0  0  0  0  0  0  0  0  0
   -4.1911   -1.4095   -0.1480 C   0  0  0  0  0  0  0  0  0  0  0  0
   -0.8310   -2.8511    0.5052 C   0  0  0  0  0  0  0  0  0  0  0  0
    0.9963   -1.5924    0.6297 H   0  0  0  0  0  0  0  0  0  0  0  0
   -4.7776    0.6373   -0.4682 H   0  0  0  0  0  0  0  0  0  0  0  0
   -3.3293   -3.3345    0.1983 H   0  0  0  0  0  0  0  0  0  0  0  0
    3.2780    1.9409    0.5465 H   0  0  0  0  0  0  0  0  0  0  0  0
   -0.1076   -2.9368   -0.3117 H   0  0  0  0  0  0  0  0  0  0  0  0
   -0.3722   -2.7308    1.4916 H   0  0  0  0  0  0  0  0  0  0  0  0
   -1.3003   -3.8432    0.5495 H   0  0  0  0  0  0  0  0  0  0  0  0
    0.5066    4.0188   -0.0927 H   0  0  0  0  0  0  0  0  0  0  0  0
   -5.4303   -2.8661   -0.1585 H   0  0  0  0  0  0  0  0  0  0  0  0
    5.9097   -2.6531   -0.3458 H   0  0  0  0  0  0  0  0  0  0  0  0
  1  3  1  0  0  0  0
  1  7  1  0  0  0  0
  1  8  2  0  0  0  0
  1  9  2  0  0  0  0
  2 13  1  0  0  0  0
  2 17  1  0  0  0  0
  3 19  1  0  0  0  0
  4 16  1  0  0  0  0
  4 31  1  0  0  0  0
  5 22  1  0  0  0  0
  5 32  1  0  0  0  0
  6 17  2  0  0  0  0
  7 33  1  0  0  0  0
 10 11  1  0  0  0  0
 10 13  2  0  0  0  0
 10 14  1  0  0  0  0
 11 12  2  0  0  0  0
 11 15  1  0  0  0  0
 12 16  1  0  0  0  0
 12 17  1  0  0  0  0
 13 18  1  0  0  0  0
 14 20  2  0  0  0  0
 14 23  1  0  0  0  0
 15 19  2  0  0  0  0
 15 24  1  0  0  0  0
 16 21  2  0  0  0  0
 18 22  2  0  0  0  0
 18 25  1  0  0  0  0
 19 21  1  0  0  0  0
 20 22  1  0  0  0  0
 20 26  1  0  0  0  0
 21 27  1  0  0  0  0
 23 28  1  0  0  0  0
 23 29  1  0  0  0  0
 23 30  1  0  0  0  0
M  END
> <PUBCHEM_COMPOUND_CID>
24899915

> <PUBCHEM_CONFORMER_RMSD>
0.6

> <PUBCHEM_CONFORMER_DIVERSEORDER>
2
1
3
4

> <PUBCHEM_MMFF94_PARTIAL_CHARGES>
28
1 1.67
12 0.09
13 0.08
14 -0.14
15 -0.15
16 0.08
17 0.63
18 -0.15
19 0.08
2 -0.23
20 -0.15
21 -0.15
22 0.08
23 0.14
24 0.15
25 0.15
26 0.15
27 0.15
3 -0.27
31 0.45
32 0.45
33 0.5
4 -0.53
5 -0.53
6 -0.57
7 -0.68
8 -0.65
9 -0.65

> <PUBCHEM_EFFECTIVE_ROTOR_COUNT>
2

> <PUBCHEM_PHARMACOPHORE_FEATURES>
10
1 4 donor
1 5 donor
1 6 acceptor
1 7 acceptor
1 8 acceptor
1 9 acceptor
4 1 7 8 9 anion
6 10 13 14 18 20 22 rings
6 11 12 15 16 19 21 rings
6 2 10 11 12 13 17 rings

> <PUBCHEM_HEAVY_ATOM_COUNT>
23

> <PUBCHEM_ATOM_DEF_STEREO_COUNT>
0

> <PUBCHEM_ATOM_UDEF_STEREO_COUNT>
0

> <PUBCHEM_BOND_DEF_STEREO_COUNT>
0

> <PUBCHEM_BOND_UDEF_STEREO_COUNT>
0

> <PUBCHEM_ISOTOPIC_ATOM_COUNT>
0

> <PUBCHEM_COMPONENT_COUNT>
1

> <PUBCHEM_CACTVS_TAUTO_COUNT>
67

> <PUBCHEM_CONFORMER_ID>
017BF14B00000002

> <PUBCHEM_MMFF94_ENERGY>
89.3327

> <PUBCHEM_FEATURE_SELFOVERLAP>
50.852

> <PUBCHEM_SHAPE_FINGERPRINT>
10319926 262 18051663609708362498
10411042 1 18410290319921131491
10693767 8 18056176181206500423
10967382 1 18120367920191938305
1100329 8 18340489946204599177
11578080 2 17097459125937215868
11680986 33 18119531191874745483
116883 192 18412262839311970124
12403259 226 18412256251048623881
12403259 327 15625941014225091827
12553582 1 18408315584073596899
12788726 201 18335707104977639514
13140716 1 18411417302639962793
13533116 47 17986393506690244195
13583140 156 14835837322829623595
138480 1 15024147019943528480
14022347 108 18114453560982885731
14251757 5 18334869320014400830
14790565 3 17691979158626140208
14866123 147 18196374723947534521
15042514 8 18194116313978791970
15196674 1 18410006680686806193
15352361 1 18411981356041055318
15442244 35 18339078297922934129
15536298 74 18268143339279015785
16752209 62 18263070033524613937
16945 1 18336535015600379593
17357779 13 18340756087814870317
17492 89 18051972820972537447
17804303 29 18410855464676323721
19591789 44 18337953381030845794
20403669 9 18413672409014054278
20645477 70 18193831772327002847
20871999 31 18337397050038492638
20905425 154 18196933266742933095
21267235 1 18337394941447323387
21279426 13 18335406990449194557
221490 88 18119533377633472891
22182313 1 18264466529567729813
2334 1 18264200499472458385
23402539 116 18340481175537911039
23419403 2 17559653127738595704
23557571 272 18270681957757651546
23559900 14 18341043128969222920
2748010 2 18336532928404444673
3004659 81 18186802453300483762
3178227 256 18193575367655362889
335352 9 18410571756833733565
3421961 26 18341611589544877144
350125 39 18409171004747714809
5104073 3 18343017787475523320
59755656 215 18192993940451615492
7364860 26 18196371648360943440
9709674 26 18120934164253803147

> <PUBCHEM_SHAPE_MULTIPOLES>
430.22
8.78
3.81
0.79
2.51
2.3
-0.05
-7.27
-1.61
0.04
-0.12
0.49
-0.18
0.54

> <PUBCHEM_SHAPE_SELFOVERLAP>
944.345

> <PUBCHEM_SHAPE_VOLUME>
233.9

> <PUBCHEM_COORDINATE_TYPE>
2
5
10

$$$$
