25167277
  -OEChem-10052115143D

 41 44  0     0  0  0  0  0  0999 V2000
    2.8581    0.0968    0.0696 N   0  0  0  0  0  0  0  0  0  0  0  0
    1.0587    1.7037   -0.0132 N   0  0  0  0  0  0  0  0  0  0  0  0
    1.7907   -1.8469   -0.1232 N   0  0  0  0  0  0  0  0  0  0  0  0
    4.2128   -1.8723    0.0934 N   0  0  0  0  0  0  0  0  0  0  0  0
   -4.5809   -1.5443   -0.3892 N   0  0  0  0  0  0  0  0  0  0  0  0
   -4.9517   -1.6427    0.8984 N   0  0  0  0  0  0  0  0  0  0  0  0
    1.5266    0.3992   -0.0354 C   0  0  0  0  0  0  0  0  0  0  0  0
    0.8919   -0.8127   -0.1528 C   0  0  0  0  0  0  0  0  0  0  0  0
   -0.3363    2.0568   -0.1221 C   0  0  0  0  0  0  0  0  0  0  0  0
   -0.5236    3.5667   -0.0007 C   0  0  0  0  0  0  0  0  0  0  0  0
   -0.5207   -0.9994   -0.2885 C   0  0  0  0  0  0  0  0  0  0  0  0
   -1.9946    3.9857   -0.0636 C   0  0  0  0  0  0  0  0  0  0  0  0
    2.9798   -1.2875    0.0117 C   0  0  0  0  0  0  0  0  0  0  0  0
   -1.3083   -1.1491    0.8599 C   0  0  0  0  0  0  0  0  0  0  0  0
   -2.6928   -1.3304    0.7053 C   0  0  0  0  0  0  0  0  0  0  0  0
   -1.0940   -1.0290   -1.5611 C   0  0  0  0  0  0  0  0  0  0  0  0
   -3.2377   -1.3559   -0.5736 C   0  0  0  0  0  0  0  0  0  0  0  0
    3.9475    0.9405    0.2099 C   0  0  0  0  0  0  0  0  0  0  0  0
   -2.4707   -1.2086   -1.7314 C   0  0  0  0  0  0  0  0  0  0  0  0
   -2.1530    5.4865    0.1259 C   0  0  0  0  0  0  0  0  0  0  0  0
    5.1764    0.4199    0.2948 C   0  0  0  0  0  0  0  0  0  0  0  0
   -3.8003   -1.5122    1.5611 C   0  0  0  0  0  0  0  0  0  0  0  0
    5.2223   -1.0648    0.2249 C   0  0  0  0  0  0  0  0  0  0  0  0
   -0.7356    1.7358   -1.0894 H   0  0  0  0  0  0  0  0  0  0  0  0
   -0.9098    1.5838    0.6807 H   0  0  0  0  0  0  0  0  0  0  0  0
    0.0354    4.0711   -0.7993 H   0  0  0  0  0  0  0  0  0  0  0  0
   -0.0885    3.9104    0.9469 H   0  0  0  0  0  0  0  0  0  0  0  0
    1.7132    2.4757    0.0774 H   0  0  0  0  0  0  0  0  0  0  0  0
   -2.4222    3.6936   -1.0296 H   0  0  0  0  0  0  0  0  0  0  0  0
   -2.5634    3.4641    0.7148 H   0  0  0  0  0  0  0  0  0  0  0  0
   -0.8670   -1.1267    1.8528 H   0  0  0  0  0  0  0  0  0  0  0  0
   -0.4739   -0.9114   -2.4481 H   0  0  0  0  0  0  0  0  0  0  0  0
    3.7823    2.0096    0.2484 H   0  0  0  0  0  0  0  0  0  0  0  0
   -2.9178   -1.2315   -2.7189 H   0  0  0  0  0  0  0  0  0  0  0  0
   -1.7651    5.8024    1.0996 H   0  0  0  0  0  0  0  0  0  0  0  0
   -1.6180    6.0386   -0.6533 H   0  0  0  0  0  0  0  0  0  0  0  0
   -3.2102    5.7651    0.0749 H   0  0  0  0  0  0  0  0  0  0  0  0
    6.0821    0.9975    0.4053 H   0  0  0  0  0  0  0  0  0  0  0  0
   -3.8144   -1.5546    2.6411 H   0  0  0  0  0  0  0  0  0  0  0  0
   -5.2986   -1.6145   -1.0998 H   0  0  0  0  0  0  0  0  0  0  0  0
    6.2339   -1.4976    0.2944 H   0  0  0  0  0  0  0  0  0  0  0  0
  1  7  1  0  0  0  0
  1 13  1  0  0  0  0
  1 18  1  0  0  0  0
  2  7  1  0  0  0  0
  2  9  1  0  0  0  0
  2 28  1  0  0  0  0
  3  8  1  0  0  0  0
  3 13  2  0  0  0  0
  4 13  1  0  0  0  0
  4 23  2  0  0  0  0
  5  6  1  0  0  0  0
  5 17  1  0  0  0  0
  5 40  1  0  0  0  0
  6 22  2  0  0  0  0
  7  8  2  0  0  0  0
  8 11  1  0  0  0  0
  9 10  1  0  0  0  0
  9 24  1  0  0  0  0
  9 25  1  0  0  0  0
 10 12  1  0  0  0  0
 10 26  1  0  0  0  0
 10 27  1  0  0  0  0
 11 14  2  0  0  0  0
 11 16  1  0  0  0  0
 12 20  1  0  0  0  0
 12 29  1  0  0  0  0
 12 30  1  0  0  0  0
 14 15  1  0  0  0  0
 14 31  1  0  0  0  0
 15 17  2  0  0  0  0
 15 22  1  0  0  0  0
 16 19  2  0  0  0  0
 16 32  1  0  0  0  0
 17 19  1  0  0  0  0
 18 21  2  0  0  0  0
 18 33  1  0  0  0  0
 19 34  1  0  0  0  0
 20 35  1  0  0  0  0
 20 36  1  0  0  0  0
 20 37  1  0  0  0  0
 21 23  1  0  0  0  0
 21 38  1  0  0  0  0
 22 39  1  0  0  0  0
 23 41  1  0  0  0  0
M  END
> <PUBCHEM_COMPOUND_CID>
25167277

> <PUBCHEM_CONFORMER_RMSD>
0.8

> <PUBCHEM_CONFORMER_DIVERSEORDER>
2
14
17
5
7
18
10
16
1
13
11
19
3
6
15
9
12
8
4

> <PUBCHEM_MMFF94_PARTIAL_CHARGES>
28
1 0.33
11 0.05
13 0.31
14 -0.15
16 -0.15
17 -0.15
18 -0.18
19 -0.15
2 -0.85
21 -0.14
22 0.14
23 0.38
28 0.4
3 -0.57
31 0.15
32 0.15
33 0.15
34 0.15
38 0.15
39 0.15
4 -0.58
40 0.27
41 0.06
5 0.3
6 -0.71
7 -0.07
8 0.17
9 0.37

> <PUBCHEM_EFFECTIVE_ROTOR_COUNT>
5

> <PUBCHEM_PHARMACOPHORE_FEATURES>
11
1 2 cation
1 2 donor
1 20 hydrophobe
1 4 acceptor
1 5 donor
1 6 acceptor
4 1 3 4 13 cation
5 1 3 7 8 13 rings
5 5 6 15 17 22 rings
6 1 4 13 18 21 23 rings
6 11 14 15 16 17 19 rings

> <PUBCHEM_HEAVY_ATOM_COUNT>
23

> <PUBCHEM_ATOM_DEF_STEREO_COUNT>
0

> <PUBCHEM_ATOM_UDEF_STEREO_COUNT>
0

> <PUBCHEM_BOND_DEF_STEREO_COUNT>
0

> <PUBCHEM_BOND_UDEF_STEREO_COUNT>
0

> <PUBCHEM_ISOTOPIC_ATOM_COUNT>
0

> <PUBCHEM_COMPONENT_COUNT>
1

> <PUBCHEM_CACTVS_TAUTO_COUNT>
2

> <PUBCHEM_CONFORMER_ID>
018005AD00000002

> <PUBCHEM_MMFF94_ENERGY>
47.0805

> <PUBCHEM_FEATURE_SELFOVERLAP>
56.046

> <PUBCHEM_SHAPE_FINGERPRINT>
10050765 1 18266178336893016290
104564 63 18411696556627704412
10688039 33 18334297586726161045
11578080 2 17272820239191964832
12236239 1 17704075143746148638
12293681 4 18260557748450624419
12422481 6 18056786268113875457
12516196 113 18336828696863725859
12553582 1 18340481279023243062
12741549 16 17750780216082705181
12788726 201 18334570239929541736
13134695 92 18265897041550545373
13540713 4 18057603167084026790
13583140 156 13038905560134638198
138480 1 15528269828856655761
13965767 371 17555211006415414651
14028597 1 17677038062608682121
14363568 33 17903083570435545585
14790565 3 17472705100966250188
14866123 147 17686050596260731634
15238133 3 18261407645590921909
17138139 8 17550340161579099061
17980427 23 16845012454373921157
1813 80 18272102624810755382
18785283 64 17683810186736809345
21041028 32 18408888464044166957
21049683 118 17759776188040045353
21197605 99 18125165923212628545
21641784 216 18187379735301232084
22182313 1 17844817975541511742
23175994 123 18261673769932627223
23558518 356 18188497848294560056
23559900 14 16298944393590099263
23845131 108 17542508237185621505
283562 15 18334289847136915738
474 4 17766552830430894769
5104073 3 18265319631133186058
513202 73 18268159668882331726
7164475 11 18409452462486495252
9777508 108 18195241122727188352

> <PUBCHEM_SHAPE_MULTIPOLES>
443.44
9.39
4.75
1.08
7
10.88
-0.16
-5.37
1.89
-5.64
0.21
-1.18
-0.63
0.32

> <PUBCHEM_SHAPE_SELFOVERLAP>
977.539

> <PUBCHEM_SHAPE_VOLUME>
238.9

> <PUBCHEM_COORDINATE_TYPE>
2
5
10

$$$$
