13452859
  -OEChem-10062121553D

 20 22  0     0  0  0  0  0  0999 V2000
    3.0328   -0.5142   -0.0438 S   0  0  0  0  0  0  0  0  0  0  0  0
   -1.6143    1.4841   -0.1032 N   0  0  0  0  0  0  0  0  0  0  0  0
   -2.8892    1.0449   -0.0916 N   0  0  0  0  0  0  0  0  0  0  0  0
   -0.7865   -2.0396    0.2631 C   0  0  0  0  0  0  0  0  0  0  0  0
    0.6764   -2.0589   -0.2509 C   0  0  0  0  0  0  0  0  0  0  0  0
   -1.4187   -0.6973    0.0923 C   0  0  0  0  0  0  0  0  0  0  0  0
   -0.7065    0.4791   -0.0035 C   0  0  0  0  0  0  0  0  0  0  0  0
    0.6820    0.5005    0.0051 C   0  0  0  0  0  0  0  0  0  0  0  0
    1.3417   -0.7128   -0.0832 C   0  0  0  0  0  0  0  0  0  0  0  0
    1.5642    1.6050    0.0975 C   0  0  0  0  0  0  0  0  0  0  0  0
   -2.7631   -0.2829    0.0316 C   0  0  0  0  0  0  0  0  0  0  0  0
    2.8814    1.1920    0.0866 C   0  0  0  0  0  0  0  0  0  0  0  0
   -0.7896   -2.2813    1.3339 H   0  0  0  0  0  0  0  0  0  0  0  0
   -1.3689   -2.8161   -0.2450 H   0  0  0  0  0  0  0  0  0  0  0  0
    0.6731   -2.3010   -1.3217 H   0  0  0  0  0  0  0  0  0  0  0  0
    1.2350   -2.8503    0.2613 H   0  0  0  0  0  0  0  0  0  0  0  0
    1.2701    2.6441    0.1746 H   0  0  0  0  0  0  0  0  0  0  0  0
   -3.6574   -0.8878    0.0780 H   0  0  0  0  0  0  0  0  0  0  0  0
   -1.4490    2.4796   -0.1892 H   0  0  0  0  0  0  0  0  0  0  0  0
    3.7657    1.8105    0.1474 H   0  0  0  0  0  0  0  0  0  0  0  0
  1  9  1  0  0  0  0
  1 12  1  0  0  0  0
  2  3  1  0  0  0  0
  2  7  1  0  0  0  0
  2 19  1  0  0  0  0
  3 11  2  0  0  0  0
  4  5  1  0  0  0  0
  4  6  1  0  0  0  0
  4 13  1  0  0  0  0
  4 14  1  0  0  0  0
  5  9  1  0  0  0  0
  5 15  1  0  0  0  0
  5 16  1  0  0  0  0
  6  7  2  0  0  0  0
  6 11  1  0  0  0  0
  7  8  1  0  0  0  0
  8  9  2  0  0  0  0
  8 10  1  0  0  0  0
 10 12  2  0  0  0  0
 10 17  1  0  0  0  0
 11 18  1  0  0  0  0
 12 20  1  0  0  0  0
M  END
> <PUBCHEM_COMPOUND_CID>
13452859

> <PUBCHEM_CONFORMER_RMSD>
0.4

> <PUBCHEM_CONFORMER_DIVERSEORDER>
1

> <PUBCHEM_MMFF94_PARTIAL_CHARGES>
15
1 -0.08
10 -0.15
11 0.14
12 -0.11
17 0.15
18 0.15
19 0.27
2 0.3
20 0.15
3 -0.71
4 0.18
5 0.18
6 -0.18
7 -0.15
9 -0.14

> <PUBCHEM_EFFECTIVE_ROTOR_COUNT>
0.4

> <PUBCHEM_PHARMACOPHORE_FEATURES>
5
1 2 donor
1 3 acceptor
5 1 8 9 10 12 rings
5 2 3 6 7 11 rings
6 4 5 6 7 8 9 rings

> <PUBCHEM_HEAVY_ATOM_COUNT>
12

> <PUBCHEM_ATOM_DEF_STEREO_COUNT>
0

> <PUBCHEM_ATOM_UDEF_STEREO_COUNT>
0

> <PUBCHEM_BOND_DEF_STEREO_COUNT>
0

> <PUBCHEM_BOND_UDEF_STEREO_COUNT>
0

> <PUBCHEM_ISOTOPIC_ATOM_COUNT>
0

> <PUBCHEM_COMPONENT_COUNT>
1

> <PUBCHEM_CACTVS_TAUTO_COUNT>
2

> <PUBCHEM_CONFORMER_ID>
00CD463B00000001

> <PUBCHEM_MMFF94_ENERGY>
16.2098

> <PUBCHEM_FEATURE_SELFOVERLAP>
25.521

> <PUBCHEM_SHAPE_FINGERPRINT>
1 1 18340204098628804030
10608611 8 18410853286996523032
10967382 1 18410856555365927778
12423570 1 7826687163761275511
13380535 21 18265911317968888044
13380535 76 18410852170188806126
14325111 11 18410855481687602188
15775835 57 18408609183848303424
16945 1 18411420583372107558
193761 8 17329991811768577613
19973954 147 18265336281845756904
20201158 50 18340486668727125510
20645476 183 17823154448237117326
20871998 184 18054235598231488287
21040471 1 18338517542381036372
21501502 16 18339078319165564366
23235685 24 18410849966886219144
2334 1 18194683897843157798
23402655 69 18196920099195922357
23463225 33 18334853862542880682
23552423 10 18044093677502074878
23559900 14 18271536368840486892
241688 4 17187570438456312258
25 1 18337955567253420053
2748010 2 18266744764688493326
369184 2 18343020038038346505
5084963 1 18202562886472244824
528886 8 18411413999334825560
53812653 166 18340767048687460504
63268167 104 18268714900467636323
6333449 129 18267864067451573266
7364860 26 18198623224709754710

> <PUBCHEM_SHAPE_MULTIPOLES>
240.84
4.31
2.04
0.63
0.24
0.56
0
-1.13
0
0.03
0
0.05
0.04
0.17

> <PUBCHEM_SHAPE_SELFOVERLAP>
528.912

> <PUBCHEM_SHAPE_VOLUME>
133.3

> <PUBCHEM_COORDINATE_TYPE>
2
5
10

$$$$
