53348216
  -OEChem-10062121563D

 56 60  0     0  0  0  0  0  0999 V2000
   -4.5776    2.4330    1.6623 S   0  0  0  0  0  0  0  0  0  0  0  0
    3.7986    0.9961   -0.2797 N   0  0  0  0  0  0  0  0  0  0  0  0
    0.4437   -2.6044    0.1756 N   0  0  0  0  0  0  0  0  0  0  0  0
    0.6358   -5.4520    0.1140 N   0  0  0  0  0  0  0  0  0  0  0  0
    1.5124   -0.5386   -0.0340 N   0  0  0  0  0  0  0  0  0  0  0  0
    2.4840    2.9613   -0.3383 N   0  0  0  0  0  0  0  0  0  0  0  0
   -0.8782   -0.6824    0.1196 N   0  0  0  0  0  0  0  0  0  0  0  0
    0.0934    2.8176   -0.1848 N   0  0  0  0  0  0  0  0  0  0  0  0
   -2.1928    1.2829    0.0611 N   0  0  0  0  0  0  0  0  0  0  0  0
    6.1914    0.8252   -0.3889 C   0  0  0  0  0  0  0  0  0  0  0  0
    6.6891    0.2920    0.9224 C   0  0  0  0  0  0  0  0  0  0  0  0
    7.4906    1.3187    0.1773 C   0  0  0  0  0  0  0  0  0  0  0  0
    5.0092    1.7379   -0.4045 C   0  0  0  0  0  0  0  0  0  0  0  0
    2.5220    1.6161   -0.2460 C   0  0  0  0  0  0  0  0  0  0  0  0
    1.4126    0.8017   -0.1222 C   0  0  0  0  0  0  0  0  0  0  0  0
   -0.6686   -3.4062   -0.3521 C   0  0  0  0  0  0  0  0  0  0  0  0
    1.7601   -3.2513    0.1543 C   0  0  0  0  0  0  0  0  0  0  0  0
   -0.6644   -4.8019    0.2704 C   0  0  0  0  0  0  0  0  0  0  0  0
    1.6778   -4.6534    0.7574 C   0  0  0  0  0  0  0  0  0  0  0  0
    0.3535   -1.2110    0.0829 C   0  0  0  0  0  0  0  0  0  0  0  0
    0.1931    1.4774   -0.0966 C   0  0  0  0  0  0  0  0  0  0  0  0
   -0.9163    0.6629    0.0271 C   0  0  0  0  0  0  0  0  0  0  0  0
    1.2522    3.4900   -0.3017 C   0  0  0  0  0  0  0  0  0  0  0  0
   -3.4624    0.8545   -0.3520 C   0  0  0  0  0  0  0  0  0  0  0  0
   -4.6244    1.2940    0.2820 C   0  0  0  0  0  0  0  0  0  0  0  0
   -3.5463   -0.0336   -1.4243 C   0  0  0  0  0  0  0  0  0  0  0  0
   -5.8703    0.8454   -0.1561 C   0  0  0  0  0  0  0  0  0  0  0  0
   -4.7924   -0.4823   -1.8625 C   0  0  0  0  0  0  0  0  0  0  0  0
   -5.9544   -0.0428   -1.2283 C   0  0  0  0  0  0  0  0  0  0  0  0
   -5.3712    1.4531    2.9657 C   0  0  0  0  0  0  0  0  0  0  0  0
    6.2339    0.1726   -1.2526 H   0  0  0  0  0  0  0  0  0  0  0  0
    6.1945    0.6043    1.8340 H   0  0  0  0  0  0  0  0  0  0  0  0
    7.0647   -0.7237    0.9430 H   0  0  0  0  0  0  0  0  0  0  0  0
    8.4054    0.9924   -0.3025 H   0  0  0  0  0  0  0  0  0  0  0  0
    7.5354    2.3192    0.5893 H   0  0  0  0  0  0  0  0  0  0  0  0
    5.0166    2.2953   -1.3487 H   0  0  0  0  0  0  0  0  0  0  0  0
    5.0839    2.4721    0.4075 H   0  0  0  0  0  0  0  0  0  0  0  0
    3.8051    0.0033   -0.4922 H   0  0  0  0  0  0  0  0  0  0  0  0
   -1.6422   -2.9538   -0.1300 H   0  0  0  0  0  0  0  0  0  0  0  0
   -0.5794   -3.4751   -1.4438 H   0  0  0  0  0  0  0  0  0  0  0  0
    2.1278   -3.3008   -0.8784 H   0  0  0  0  0  0  0  0  0  0  0  0
    2.4905   -2.6830    0.7431 H   0  0  0  0  0  0  0  0  0  0  0  0
   -0.9268   -4.7427    1.3343 H   0  0  0  0  0  0  0  0  0  0  0  0
   -1.4313   -5.4150   -0.2154 H   0  0  0  0  0  0  0  0  0  0  0  0
    2.6430   -5.1562    0.6320 H   0  0  0  0  0  0  0  0  0  0  0  0
    1.4866   -4.5906    1.8361 H   0  0  0  0  0  0  0  0  0  0  0  0
    0.6045   -6.3750    0.5462 H   0  0  0  0  0  0  0  0  0  0  0  0
    1.1823    4.5681   -0.3734 H   0  0  0  0  0  0  0  0  0  0  0  0
   -2.2047    2.1325    0.6191 H   0  0  0  0  0  0  0  0  0  0  0  0
   -2.6598   -0.3812   -1.9481 H   0  0  0  0  0  0  0  0  0  0  0  0
   -6.7923    1.1792    0.3135 H   0  0  0  0  0  0  0  0  0  0  0  0
   -4.8582   -1.1708   -2.6999 H   0  0  0  0  0  0  0  0  0  0  0  0
   -6.9245   -0.3900   -1.5716 H   0  0  0  0  0  0  0  0  0  0  0  0
   -6.4255    1.2794    2.7359 H   0  0  0  0  0  0  0  0  0  0  0  0
   -4.8613    0.4932    3.0846 H   0  0  0  0  0  0  0  0  0  0  0  0
   -5.3098    1.9995    3.9106 H   0  0  0  0  0  0  0  0  0  0  0  0
  1 25  1  0  0  0  0
  1 30  1  0  0  0  0
  2 13  1  0  0  0  0
  2 14  1  0  0  0  0
  2 38  1  0  0  0  0
  3 16  1  0  0  0  0
  3 17  1  0  0  0  0
  3 20  1  0  0  0  0
  4 18  1  0  0  0  0
  4 19  1  0  0  0  0
  4 47  1  0  0  0  0
  5 15  1  0  0  0  0
  5 20  2  0  0  0  0
  6 14  2  0  0  0  0
  6 23  1  0  0  0  0
  7 20  1  0  0  0  0
  7 22  2  0  0  0  0
  8 21  1  0  0  0  0
  8 23  2  0  0  0  0
  9 22  1  0  0  0  0
  9 24  1  0  0  0  0
  9 49  1  0  0  0  0
 10 11  1  0  0  0  0
 10 12  1  0  0  0  0
 10 13  1  0  0  0  0
 10 31  1  0  0  0  0
 11 12  1  0  0  0  0
 11 32  1  0  0  0  0
 11 33  1  0  0  0  0
 12 34  1  0  0  0  0
 12 35  1  0  0  0  0
 13 36  1  0  0  0  0
 13 37  1  0  0  0  0
 14 15  1  0  0  0  0
 15 21  2  0  0  0  0
 16 18  1  0  0  0  0
 16 39  1  0  0  0  0
 16 40  1  0  0  0  0
 17 19  1  0  0  0  0
 17 41  1  0  0  0  0
 17 42  1  0  0  0  0
 18 43  1  0  0  0  0
 18 44  1  0  0  0  0
 19 45  1  0  0  0  0
 19 46  1  0  0  0  0
 21 22  1  0  0  0  0
 23 48  1  0  0  0  0
 24 25  1  0  0  0  0
 24 26  2  0  0  0  0
 25 27  2  0  0  0  0
 26 28  1  0  0  0  0
 26 50  1  0  0  0  0
 27 29  1  0  0  0  0
 27 51  1  0  0  0  0
 28 29  2  0  0  0  0
 28 52  1  0  0  0  0
 29 53  1  0  0  0  0
 30 54  1  0  0  0  0
 30 55  1  0  0  0  0
 30 56  1  0  0  0  0
M  END
> <PUBCHEM_COMPOUND_CID>
53348216

> <PUBCHEM_CONFORMER_RMSD>
1

> <PUBCHEM_CONFORMER_DIVERSEORDER>
1
14
2
10
12
6
13
5
3
11
4
7
9
8

> <PUBCHEM_MMFF94_PARTIAL_CHARGES>
43
1 -0.33
10 -0.19
11 -0.2
12 -0.2
13 0.46
14 0.41
15 0.31
16 0.37
17 0.37
18 0.27
19 0.27
2 -0.87
20 0.72
21 0.31
22 0.41
23 0.47
24 0.1
25 0.1
26 -0.15
27 -0.15
28 -0.15
29 -0.15
3 -0.84
30 0.23
31 0.1
32 0.1
33 0.1
34 0.1
35 0.1
38 0.4
4 -0.9
47 0.36
48 0.15
49 0.4
5 -0.62
50 0.15
51 0.15
52 0.15
53 0.15
6 -0.62
7 -0.62
8 -0.62
9 -0.6

> <PUBCHEM_EFFECTIVE_ROTOR_COUNT>
8.8

> <PUBCHEM_PHARMACOPHORE_FEATURES>
12
1 2 donor
1 30 hydrophobe
1 4 cation
1 4 donor
1 9 donor
3 2 6 14 cation
3 6 8 23 cation
4 3 5 7 20 cation
6 24 25 26 27 28 29 rings
6 3 4 16 17 18 19 rings
6 5 7 15 20 21 22 rings
6 6 8 14 15 21 23 rings

> <PUBCHEM_HEAVY_ATOM_COUNT>
30

> <PUBCHEM_ATOM_DEF_STEREO_COUNT>
0

> <PUBCHEM_ATOM_UDEF_STEREO_COUNT>
0

> <PUBCHEM_BOND_DEF_STEREO_COUNT>
0

> <PUBCHEM_BOND_UDEF_STEREO_COUNT>
0

> <PUBCHEM_ISOTOPIC_ATOM_COUNT>
0

> <PUBCHEM_COMPONENT_COUNT>
1

> <PUBCHEM_CACTVS_TAUTO_COUNT>
9

> <PUBCHEM_CONFORMER_ID>
032E077800000001

> <PUBCHEM_MMFF94_ENERGY>
109.9203

> <PUBCHEM_FEATURE_SELFOVERLAP>
61.077

> <PUBCHEM_SHAPE_FINGERPRINT>
102385 1 17688875658660975436
10906281 52 18270980032630578516
10930396 42 18124283191606399456
1100329 8 18337950220525843860
11135609 187 18409157797042739237
11135926 11 18409159992414404685
11445158 3 17677064541103505213
11991303 11 17823139080654494430
12553582 1 17834960772273651287
12655364 131 18199193888888917418
12788726 201 17561078108689808423
1361 2 18409444748677875770
13692114 37 18127677430206538982
138480 1 18121775033146010943
14028597 1 17917159286070416073
14790565 3 18410294696767164544
14866123 147 18265895946292238818
15183329 4 18409448111637502516
15664445 248 17840880572399290366
15927050 60 18411697699290212446
16728300 4 17316732432425812818
17913733 40 18339099111065224451
19319366 153 18198043976241545567
20028762 73 18343577464964590492
21781051 124 17969246532602663954
21796203 349 17619098060907750099
21814621 53 15985108479366348044
22311459 1 18409727379407263172
22440779 20 16231144225182563706
23559900 14 18197492034337308728
23569917 315 18411985784152993886
283562 15 18342176614327069032
3178227 256 18335993042314737329
335352 9 18337107960491487604
3383291 50 18339078310707875682
340366 18 17969222407655695148
38695281 34 18408884027379658854
3886686 26 17764554975286830472
484989 97 18120087553406837631
5385378 56 18337961077638497224
563151 74 18125471668800869633
563151 97 18339360769068813381
59755656 520 18337100267455584550
6669772 16 18412262818402305862
6691757 9 18340488963009652320

> <PUBCHEM_SHAPE_MULTIPOLES>
581.39
14.63
5.81
1.36
9.35
10.95
-0.7
-11.58
-1.22
2.96
-1.16
-2.99
-0.53
-2.31

> <PUBCHEM_SHAPE_SELFOVERLAP>
1238.757

> <PUBCHEM_SHAPE_VOLUME>
324

> <PUBCHEM_COORDINATE_TYPE>
2
5
10

$$$$
