49830787
  -OEChem-10062121533D

 38 40  0     0  0  0  0  0  0999 V2000
   -2.2986   -1.2453   -1.6220 F   0  0  0  0  0  0  0  0  0  0  0  0
   -4.4600   -2.8617   -1.2813 F   0  0  0  0  0  0  0  0  0  0  0  0
    4.9845    0.4683   -0.0868 O   0  0  0  0  0  0  0  0  0  0  0  0
    1.6632    3.1013   -0.3378 N   0  0  0  0  0  0  0  0  0  0  0  0
    2.7167   -0.1422    0.0949 N   0  0  0  0  0  0  0  0  0  0  0  0
    2.6692    2.2155   -0.2484 N   0  0  0  0  0  0  0  0  0  0  0  0
    0.6361    1.1909   -0.0153 C   0  0  0  0  0  0  0  0  0  0  0  0
    0.4169    2.5506   -0.2059 C   0  0  0  0  0  0  0  0  0  0  0  0
   -1.7514    0.8843    0.1269 C   0  0  0  0  0  0  0  0  0  0  0  0
    2.0405    1.0542   -0.0526 C   0  0  0  0  0  0  0  0  0  0  0  0
   -0.4639    0.3339    0.1552 C   0  0  0  0  0  0  0  0  0  0  0  0
   -0.8580    3.1197   -0.2376 C   0  0  0  0  0  0  0  0  0  0  0  0
   -1.9429    2.2537   -0.0662 C   0  0  0  0  0  0  0  0  0  0  0  0
   -2.8990    0.0188    0.3007 C   0  0  0  0  0  0  0  0  0  0  0  0
    4.4333   -1.8552    0.2457 C   0  0  0  0  0  0  0  0  0  0  0  0
    5.9281   -2.1678    0.2293 C   0  0  0  0  0  0  0  0  0  0  0  0
    4.1096   -0.3763    0.0724 C   0  0  0  0  0  0  0  0  0  0  0  0
   -3.1308   -1.0264   -0.5935 C   0  0  0  0  0  0  0  0  0  0  0  0
   -3.7748    0.2332    1.3651 C   0  0  0  0  0  0  0  0  0  0  0  0
    6.2160   -3.6523    0.4050 C   0  0  0  0  0  0  0  0  0  0  0  0
   -4.2382   -1.8569   -0.4236 C   0  0  0  0  0  0  0  0  0  0  0  0
   -4.8823   -0.5976    1.5351 C   0  0  0  0  0  0  0  0  0  0  0  0
   -5.1140   -1.6427    0.6407 C   0  0  0  0  0  0  0  0  0  0  0  0
   -0.3075   -0.7301    0.3113 H   0  0  0  0  0  0  0  0  0  0  0  0
   -1.0046    4.1832   -0.3893 H   0  0  0  0  0  0  0  0  0  0  0  0
   -2.9457    2.6766   -0.0941 H   0  0  0  0  0  0  0  0  0  0  0  0
    1.8959    4.0747   -0.4905 H   0  0  0  0  0  0  0  0  0  0  0  0
    3.9977   -2.1859    1.1964 H   0  0  0  0  0  0  0  0  0  0  0  0
    3.9321   -2.4060   -0.5595 H   0  0  0  0  0  0  0  0  0  0  0  0
    2.1178   -0.9525    0.2359 H   0  0  0  0  0  0  0  0  0  0  0  0
    6.3659   -1.8271   -0.7167 H   0  0  0  0  0  0  0  0  0  0  0  0
    6.4307   -1.6077    1.0269 H   0  0  0  0  0  0  0  0  0  0  0  0
   -3.6099    1.0382    2.0775 H   0  0  0  0  0  0  0  0  0  0  0  0
    5.7585   -4.2368   -0.3995 H   0  0  0  0  0  0  0  0  0  0  0  0
    7.2951   -3.8342    0.3876 H   0  0  0  0  0  0  0  0  0  0  0  0
    5.8242   -4.0157    1.3603 H   0  0  0  0  0  0  0  0  0  0  0  0
   -5.5635   -0.4319    2.3645 H   0  0  0  0  0  0  0  0  0  0  0  0
   -5.9758   -2.2901    0.7732 H   0  0  0  0  0  0  0  0  0  0  0  0
  1 18  1  0  0  0  0
  2 21  1  0  0  0  0
  3 17  2  0  0  0  0
  4  6  1  0  0  0  0
  4  8  1  0  0  0  0
  4 27  1  0  0  0  0
  5 10  1  0  0  0  0
  5 17  1  0  0  0  0
  5 30  1  0  0  0  0
  6 10  2  0  0  0  0
  7  8  2  0  0  0  0
  7 10  1  0  0  0  0
  7 11  1  0  0  0  0
  8 12  1  0  0  0  0
  9 11  2  0  0  0  0
  9 13  1  0  0  0  0
  9 14  1  0  0  0  0
 11 24  1  0  0  0  0
 12 13  2  0  0  0  0
 12 25  1  0  0  0  0
 13 26  1  0  0  0  0
 14 18  2  0  0  0  0
 14 19  1  0  0  0  0
 15 16  1  0  0  0  0
 15 17  1  0  0  0  0
 15 28  1  0  0  0  0
 15 29  1  0  0  0  0
 16 20  1  0  0  0  0
 16 31  1  0  0  0  0
 16 32  1  0  0  0  0
 18 21  1  0  0  0  0
 19 22  2  0  0  0  0
 19 33  1  0  0  0  0
 20 34  1  0  0  0  0
 20 35  1  0  0  0  0
 20 36  1  0  0  0  0
 21 23  2  0  0  0  0
 22 23  1  0  0  0  0
 22 37  1  0  0  0  0
 23 38  1  0  0  0  0
M  END
> <PUBCHEM_COMPOUND_CID>
49830787

> <PUBCHEM_CONFORMER_RMSD>
0.8

> <PUBCHEM_CONFORMER_DIVERSEORDER>
1
9
35
39
19
20
33
48
27
37
10
41
32
31
11
29
42
15
45
13
21
47
34
43
3
51
14
44
30
36
22
49
40
28
50
5
12
2
38
25
18
16
24
6
23
4
17
26
46
8
7

> <PUBCHEM_MMFF94_PARTIAL_CHARGES>
26
1 -0.19
10 0.35
11 -0.15
12 -0.15
13 -0.15
15 0.06
17 0.57
18 0.19
19 -0.15
2 -0.19
21 0.19
22 -0.15
23 -0.15
24 0.15
25 0.15
26 0.15
27 0.27
3 -0.57
30 0.37
33 0.15
37 0.15
38 0.15
4 0.3
5 -0.49
6 -0.71
8 -0.15

> <PUBCHEM_EFFECTIVE_ROTOR_COUNT>
5

> <PUBCHEM_PHARMACOPHORE_FEATURES>
7
1 20 hydrophobe
1 3 acceptor
1 4 donor
1 5 donor
5 4 6 7 8 10 rings
6 14 18 19 21 22 23 rings
6 7 8 9 11 12 13 rings

> <PUBCHEM_HEAVY_ATOM_COUNT>
23

> <PUBCHEM_ATOM_DEF_STEREO_COUNT>
0

> <PUBCHEM_ATOM_UDEF_STEREO_COUNT>
0

> <PUBCHEM_BOND_DEF_STEREO_COUNT>
0

> <PUBCHEM_BOND_UDEF_STEREO_COUNT>
0

> <PUBCHEM_ISOTOPIC_ATOM_COUNT>
0

> <PUBCHEM_COMPONENT_COUNT>
1

> <PUBCHEM_CACTVS_TAUTO_COUNT>
24

> <PUBCHEM_CONFORMER_ID>
02F85B8300000001

> <PUBCHEM_MMFF94_ENERGY>
47.9626

> <PUBCHEM_FEATURE_SELFOVERLAP>
35.611

> <PUBCHEM_SHAPE_FINGERPRINT>
10622 236 17843102965083648487
10693767 8 18196919184157313775
11578080 2 17843664785840530761
11809386 21 17969498196121735058
12107183 9 18269850735251513801
12236239 1 18056489572205538449
12422481 6 17774730761716495910
12553582 1 18335412465620250498
12633257 1 16271928267661125209
12760667 363 18410853218361137007
13103583 49 18059868246060748897
13533116 47 18195810893657933091
13544653 18 18334016094659161076
13583140 156 14692578714778626021
13911852 28 18409729564521587226
13955234 65 18124318461133957216
14767858 380 18115042895801485020
14844126 61 18193838141562971856
14866123 147 18265619780100425513
14950920 106 17274814753601274578
15042514 8 18265899051374109280
15352361 1 18409167705811781442
15537594 2 18339653316607700774
16110190 28 18272934916727495886
16120349 21 18198072377952665595
17492 89 18410009970056728954
17780758 139 17917147183005108154
1813 80 18335436680672304349
193927 3 18041002847010484400
20645477 70 17970061356175236137
21478907 32 18409448068107437548
22950370 63 18410017632626499176
235170 7 16008746909647753894
23522609 53 18050605956315452536
23559900 14 18409157822981757297
270888 7 9871744681053132298
2748736 6 9439108824698090322
312425 54 17989488523994500242
314194 84 18337115656676710178
335352 9 18337111142840811605
3421961 26 18338518646272501928
34797466 226 15719960275206767149
351380 3 18408606937807573034
44062 13 18116711816269787412
4409770 3 18046624512947102669
46194498 28 17095804455009416564
463206 1 18335144219185522778
5104073 3 17916597573621099963
559249 180 18339361869080815187
56633871 153 18343025467225694407
6058803 2 17984716768843613121
6327066 14 10375861948936065770
6431902 208 18334574591001009218
7064713 232 17417821651173104367
76465 3 18410572890203952444
7970288 3 18409164437120902794
88748 71 18334861610405237806

> <PUBCHEM_SHAPE_MULTIPOLES>
437.97
13.32
3.93
0.99
13.79
0.36
0
-16.42
2.25
2.3
-0.59
-1.37
-0.47
-1.17

> <PUBCHEM_SHAPE_SELFOVERLAP>
957.921

> <PUBCHEM_SHAPE_VOLUME>
238.8

> <PUBCHEM_COORDINATE_TYPE>
2
5
10

$$$$
