44317726
  -OEChem-10062122043D

 35 37  0     0  0  0  0  0  0999 V2000
    0.5314   -4.4537   -0.0097 Cl  0  0  0  0  0  0  0  0  0  0  0  0
   -3.2680   -1.3506   -0.0055 O   0  0  0  0  0  0  0  0  0  0  0  0
   -7.5814    1.3696   -0.0206 O   0  0  0  0  0  0  0  0  0  0  0  0
    1.2860    1.3390    0.0089 N   0  0  0  0  0  0  0  0  0  0  0  0
   -1.5286    0.2333    0.0156 N   0  0  0  0  0  0  0  0  0  0  0  0
    4.8125    2.4202   -0.0045 N   0  0  0  0  0  0  0  0  0  0  0  0
    0.9044    0.0176    0.0055 C   0  0  0  0  0  0  0  0  0  0  0  0
    2.0702   -0.7492   -0.0021 C   0  0  0  0  0  0  0  0  0  0  0  0
    3.1776    0.1570   -0.0033 C   0  0  0  0  0  0  0  0  0  0  0  0
    2.6550    1.4498    0.0031 C   0  0  0  0  0  0  0  0  0  0  0  0
   -0.3749   -0.5500    0.0088 C   0  0  0  0  0  0  0  0  0  0  0  0
    1.9528   -2.1552   -0.0074 C   0  0  0  0  0  0  0  0  0  0  0  0
   -0.4651   -1.9445    0.0039 C   0  0  0  0  0  0  0  0  0  0  0  0
   -3.8232    0.9952    0.0262 C   0  0  0  0  0  0  0  0  0  0  0  0
    0.6801   -2.7371   -0.0041 C   0  0  0  0  0  0  0  0  0  0  0  0
    4.5725    0.0002   -0.0096 C   0  0  0  0  0  0  0  0  0  0  0  0
   -2.8676   -0.1915    0.0186 C   0  0  0  0  0  0  0  0  0  0  0  0
   -5.2970    0.6003    0.0297 C   0  0  0  0  0  0  0  0  0  0  0  0
    3.4684    2.5756    0.0027 C   0  0  0  0  0  0  0  0  0  0  0  0
    5.3231    1.1682   -0.0100 C   0  0  0  0  0  0  0  0  0  0  0  0
   -6.2283    1.8058   -0.0462 C   0  0  0  0  0  0  0  0  0  0  0  0
    0.6480    2.1226    0.0143 H   0  0  0  0  0  0  0  0  0  0  0  0
    2.8463   -2.7742   -0.0136 H   0  0  0  0  0  0  0  0  0  0  0  0
   -1.4111   -2.4699    0.0077 H   0  0  0  0  0  0  0  0  0  0  0  0
   -1.3730    1.2387    0.0225 H   0  0  0  0  0  0  0  0  0  0  0  0
   -3.6026    1.6048    0.9109 H   0  0  0  0  0  0  0  0  0  0  0  0
   -3.6071    1.6037   -0.8605 H   0  0  0  0  0  0  0  0  0  0  0  0
    5.0461   -0.9748   -0.0146 H   0  0  0  0  0  0  0  0  0  0  0  0
   -5.5277    0.0166    0.9300 H   0  0  0  0  0  0  0  0  0  0  0  0
   -5.5112   -0.0709   -0.8119 H   0  0  0  0  0  0  0  0  0  0  0  0
    3.0864    3.5880    0.0075 H   0  0  0  0  0  0  0  0  0  0  0  0
    6.4079    1.1199   -0.0151 H   0  0  0  0  0  0  0  0  0  0  0  0
   -6.0643    2.4741    0.8052 H   0  0  0  0  0  0  0  0  0  0  0  0
   -6.0619    2.3650   -0.9724 H   0  0  0  0  0  0  0  0  0  0  0  0
   -8.1382    2.1652   -0.0706 H   0  0  0  0  0  0  0  0  0  0  0  0
  1 15  1  0  0  0  0
  2 17  2  0  0  0  0
  3 21  1  0  0  0  0
  3 35  1  0  0  0  0
  4  7  1  0  0  0  0
  4 10  1  0  0  0  0
  4 22  1  0  0  0  0
  5 11  1  0  0  0  0
  5 17  1  0  0  0  0
  5 25  1  0  0  0  0
  6 19  2  0  0  0  0
  6 20  1  0  0  0  0
  7  8  2  0  0  0  0
  7 11  1  0  0  0  0
  8  9  1  0  0  0  0
  8 12  1  0  0  0  0
  9 10  2  0  0  0  0
  9 16  1  0  0  0  0
 10 19  1  0  0  0  0
 11 13  2  0  0  0  0
 12 15  2  0  0  0  0
 12 23  1  0  0  0  0
 13 15  1  0  0  0  0
 13 24  1  0  0  0  0
 14 17  1  0  0  0  0
 14 18  1  0  0  0  0
 14 26  1  0  0  0  0
 14 27  1  0  0  0  0
 16 20  2  0  0  0  0
 16 28  1  0  0  0  0
 18 21  1  0  0  0  0
 18 29  1  0  0  0  0
 18 30  1  0  0  0  0
 19 31  1  0  0  0  0
 20 32  1  0  0  0  0
 21 33  1  0  0  0  0
 21 34  1  0  0  0  0
M  END
> <PUBCHEM_COMPOUND_CID>
44317726

> <PUBCHEM_CONFORMER_RMSD>
0.8

> <PUBCHEM_CONFORMER_DIVERSEORDER>
1
8
10
14
11
13
6
2
18
16
12
4
15
7
9
3
17
5

> <PUBCHEM_MMFF94_PARTIAL_CHARGES>
26
1 -0.18
10 -0.15
11 0.12
12 -0.15
13 -0.15
14 0.06
15 0.18
16 -0.15
17 0.57
19 0.16
2 -0.57
20 0.16
21 0.28
22 0.27
23 0.15
24 0.15
25 0.37
28 0.15
3 -0.68
31 0.15
32 0.15
35 0.4
4 0.03
5 -0.55
6 -0.62
7 -0.15

> <PUBCHEM_EFFECTIVE_ROTOR_COUNT>
5

> <PUBCHEM_PHARMACOPHORE_FEATURES>
10
1 2 acceptor
1 3 acceptor
1 3 donor
1 4 cation
1 4 donor
1 5 donor
1 6 acceptor
5 4 7 8 9 10 rings
6 6 9 10 16 19 20 rings
6 7 8 11 12 13 15 rings

> <PUBCHEM_HEAVY_ATOM_COUNT>
21

> <PUBCHEM_ATOM_DEF_STEREO_COUNT>
0

> <PUBCHEM_ATOM_UDEF_STEREO_COUNT>
0

> <PUBCHEM_BOND_DEF_STEREO_COUNT>
0

> <PUBCHEM_BOND_UDEF_STEREO_COUNT>
0

> <PUBCHEM_ISOTOPIC_ATOM_COUNT>
0

> <PUBCHEM_COMPONENT_COUNT>
1

> <PUBCHEM_CACTVS_TAUTO_COUNT>
4

> <PUBCHEM_CONFORMER_ID>
02A43C1E00000001

> <PUBCHEM_MMFF94_ENERGY>
44.9849

> <PUBCHEM_FEATURE_SELFOVERLAP>
50.933

> <PUBCHEM_SHAPE_FINGERPRINT>
10411042 1 17689997830346762130
10595046 47 18342735175471993637
10693767 8 17916026746482153230
10835480 77 18262796260638178997
12236239 1 17917707990038938621
12293681 160 17918278674769687256
12730499 353 18336554837153856587
12769317 202 18340194216146685929
13583140 156 16299764590809752124
13785724 45 17263007957678299007
138480 1 17906453229892879810
13955234 65 18264210201856789171
14461889 52 18187652427470281139
14790565 3 18337957895047060372
15196674 1 18410856611184678370
15475509 35 15937235726124194024
15927050 60 18410855503764793342
19427546 62 18408887343374233075
19784866 9 18412543193318041138
20157964 124 18338515236711715645
20554085 129 17846201277302111202
20645477 70 18200313187414967495
21033648 29 18268704081588014592
21049683 118 18193814128437711346
21307412 95 17986420878928564990
22950370 63 9222961386541897454
23402539 116 18200589306335169428
23402655 69 18272366503195573829
23559900 14 18266457612182281547
23845131 108 18333732429476567843
293599 30 18410013269008473612
3091708 16 9190157431526955498
335352 9 18411421700997268542
350125 39 18408603639399166652
3545911 37 18409168797060619605
4073 2 18261398828582446899
42630746 31 18341332193205880047
474 4 18411703166698203259
5104073 3 18260543467525921474
5385378 56 18338516335411005883
59755656 215 18337677412217825132
6025842 7 18340204077555050047
621550 34 18115303372128957005
633830 44 18343298184431344534
77188 2 17689997830214640062
8272917 22 18340769234841976231
9709674 26 18054797440927385710
9999458 23 18337111172631139798

> <PUBCHEM_SHAPE_MULTIPOLES>
407.36
13.09
3.71
0.6
22.6
4.1
0
-13.36
-0.1
-2.15
-0.02
-0.03
0.03
0.03

> <PUBCHEM_SHAPE_SELFOVERLAP>
878.602

> <PUBCHEM_SHAPE_VOLUME>
225.6

> <PUBCHEM_COORDINATE_TYPE>
2
5
10

$$$$
