13009346
  -OEChem-10062121583D

 68 74  0     1  0  0  0  0  0999 V2000
    4.0900   -1.2913   -1.0038 O   0  0  0  0  0  0  0  0  0  0  0  0
    3.0367    0.8196    1.8153 O   0  0  0  0  0  0  0  0  0  0  0  0
    5.7359    0.0349    2.5387 O   0  0  0  0  0  0  0  0  0  0  0  0
    7.4019   -0.2689    0.1366 O   0  0  0  0  0  0  0  0  0  0  0  0
   -3.4022   -2.3400   -0.4815 O   0  0  0  0  0  0  0  0  0  0  0  0
   -3.8505    2.2791   -0.4453 O   0  0  0  0  0  0  0  0  0  0  0  0
    2.6888   -5.7096   -0.3380 O   0  0  0  0  0  0  0  0  0  0  0  0
    1.4758    6.7568   -0.2388 O   0  0  0  0  0  0  0  0  0  0  0  0
   -7.6908   -1.7729   -0.6976 O   0  0  0  0  0  0  0  0  0  0  0  0
   -5.8960   -0.9934    3.0467 O   0  0  0  0  0  0  0  0  0  0  0  0
    1.8960   -0.8919   -0.3087 N   0  0  0  0  0  0  0  0  0  0  0  0
    1.6265    1.8770   -0.2865 N   0  0  0  0  0  0  0  0  0  0  0  0
   -4.0120   -0.0686   -0.4750 N   0  0  0  0  0  0  0  0  0  0  0  0
   -5.3789   -0.1925   -0.5161 N   0  0  0  0  0  0  0  0  0  0  0  0
    3.2735   -0.3816   -0.2621 C   0  0  1  0  0  0  0  0  0  0  0  0
    0.6728   -0.3163   -0.3387 C   0  0  0  0  0  0  0  0  0  0  0  0
    3.7819   -0.2163    1.1766 C   0  0  1  0  0  0  0  0  0  0  0  0
   -0.5422   -1.0791   -0.3832 C   0  0  0  0  0  0  0  0  0  0  0  0
    0.5371    1.0769   -0.3275 C   0  0  0  0  0  0  0  0  0  0  0  0
    1.5534   -2.2354   -0.3338 C   0  0  0  0  0  0  0  0  0  0  0  0
    5.2667    0.1569    1.1952 C   0  0  2  0  0  0  0  0  0  0  0  0
    0.1266   -2.3885   -0.3780 C   0  0  0  0  0  0  0  0  0  0  0  0
   -1.8319   -0.5558   -0.4157 C   0  0  0  0  0  0  0  0  0  0  0  0
   -0.8020    1.5916   -0.3617 C   0  0  0  0  0  0  0  0  0  0  0  0
   -1.9667    0.8301   -0.4046 C   0  0  0  0  0  0  0  0  0  0  0  0
    6.0767   -0.7660    0.2859 C   0  0  1  0  0  0  0  0  0  0  0  0
    5.4407   -0.8526   -1.0942 C   0  0  0  0  0  0  0  0  0  0  0  0
   -0.3983    3.0051   -0.3345 C   0  0  0  0  0  0  0  0  0  0  0  0
    1.0312    3.1294   -0.2908 C   0  0  0  0  0  0  0  0  0  0  0  0
   -3.1609   -1.1494   -0.4614 C   0  0  0  0  0  0  0  0  0  0  0  0
   -3.3850    1.1568   -0.4429 C   0  0  0  0  0  0  0  0  0  0  0  0
    2.4152   -3.3427   -0.3207 C   0  0  0  0  0  0  0  0  0  0  0  0
   -0.3799   -3.7103   -0.4080 C   0  0  0  0  0  0  0  0  0  0  0  0
    1.8641   -4.6243   -0.3516 C   0  0  0  0  0  0  0  0  0  0  0  0
   -1.1504    4.2047   -0.3442 C   0  0  0  0  0  0  0  0  0  0  0  0
    0.4882   -4.8073   -0.3947 C   0  0  0  0  0  0  0  0  0  0  0  0
    1.6633    4.3820   -0.2586 C   0  0  0  0  0  0  0  0  0  0  0  0
   -5.8493   -0.9566    0.6316 C   0  0  0  0  0  0  0  0  0  0  0  0
   -0.5102    5.4483   -0.3119 C   0  0  0  0  0  0  0  0  0  0  0  0
    0.8753    5.5334   -0.2699 C   0  0  0  0  0  0  0  0  0  0  0  0
   -7.3646   -1.1298    0.5284 C   0  0  0  0  0  0  0  0  0  0  0  0
   -5.4467   -0.2414    1.9250 C   0  0  0  0  0  0  0  0  0  0  0  0
    3.3350    0.4992   -0.8920 H   0  0  0  0  0  0  0  0  0  0  0  0
    3.6234   -1.1391    1.7491 H   0  0  0  0  0  0  0  0  0  0  0  0
    5.4111    1.2057    0.9073 H   0  0  0  0  0  0  0  0  0  0  0  0
    6.1444   -1.7626    0.7374 H   0  0  0  0  0  0  0  0  0  0  0  0
    5.4900    0.1057   -1.6268 H   0  0  0  0  0  0  0  0  0  0  0  0
    5.9904   -1.5716   -1.7117 H   0  0  0  0  0  0  0  0  0  0  0  0
    2.5915    1.7377   -0.0696 H   0  0  0  0  0  0  0  0  0  0  0  0
    3.4915   -3.2612   -0.2304 H   0  0  0  0  0  0  0  0  0  0  0  0
   -1.4490   -3.8936   -0.4418 H   0  0  0  0  0  0  0  0  0  0  0  0
    3.2860    0.8273    2.7544 H   0  0  0  0  0  0  0  0  0  0  0  0
    5.2912    0.7163    3.0703 H   0  0  0  0  0  0  0  0  0  0  0  0
   -2.2348    4.1790   -0.3767 H   0  0  0  0  0  0  0  0  0  0  0  0
    0.0649   -5.8087   -0.4184 H   0  0  0  0  0  0  0  0  0  0  0  0
    2.7469    4.4529   -0.2255 H   0  0  0  0  0  0  0  0  0  0  0  0
    7.3485    0.6212   -0.2512 H   0  0  0  0  0  0  0  0  0  0  0  0
   -5.6207   -0.6773   -1.3799 H   0  0  0  0  0  0  0  0  0  0  0  0
   -5.4411   -1.9735    0.6374 H   0  0  0  0  0  0  0  0  0  0  0  0
   -1.1187    6.3495   -0.3204 H   0  0  0  0  0  0  0  0  0  0  0  0
   -7.8789   -0.1625    0.5578 H   0  0  0  0  0  0  0  0  0  0  0  0
   -7.7459   -1.7493    1.3467 H   0  0  0  0  0  0  0  0  0  0  0  0
   -4.3622   -0.1418    2.0303 H   0  0  0  0  0  0  0  0  0  0  0  0
   -5.8952    0.7571    1.9820 H   0  0  0  0  0  0  0  0  0  0  0  0
    2.1484   -6.5180   -0.3631 H   0  0  0  0  0  0  0  0  0  0  0  0
    0.7898    7.4463   -0.2517 H   0  0  0  0  0  0  0  0  0  0  0  0
   -8.6585   -1.8644   -0.7230 H   0  0  0  0  0  0  0  0  0  0  0  0
   -5.6336   -0.5020    3.8437 H   0  0  0  0  0  0  0  0  0  0  0  0
  1 15  1  0  0  0  0
  1 27  1  0  0  0  0
  2 17  1  0  0  0  0
  2 52  1  0  0  0  0
  3 21  1  0  0  0  0
  3 53  1  0  0  0  0
  4 26  1  0  0  0  0
  4 57  1  0  0  0  0
  5 30  2  0  0  0  0
  6 31  2  0  0  0  0
  7 34  1  0  0  0  0
  7 65  1  0  0  0  0
  8 40  1  0  0  0  0
  8 66  1  0  0  0  0
  9 41  1  0  0  0  0
  9 67  1  0  0  0  0
 10 42  1  0  0  0  0
 10 68  1  0  0  0  0
 11 15  1  0  0  0  0
 11 16  1  0  0  0  0
 11 20  1  0  0  0  0
 12 19  1  0  0  0  0
 12 29  1  0  0  0  0
 12 49  1  0  0  0  0
 13 14  1  0  0  0  0
 13 30  1  0  0  0  0
 13 31  1  0  0  0  0
 14 38  1  0  0  0  0
 14 58  1  0  0  0  0
 15 17  1  0  0  0  0
 15 43  1  0  0  0  0
 16 18  1  0  0  0  0
 16 19  2  0  0  0  0
 17 21  1  0  0  0  0
 17 44  1  0  0  0  0
 18 22  1  0  0  0  0
 18 23  2  0  0  0  0
 19 24  1  0  0  0  0
 20 22  2  0  0  0  0
 20 32  1  0  0  0  0
 21 26  1  0  0  0  0
 21 45  1  0  0  0  0
 22 33  1  0  0  0  0
 23 25  1  0  0  0  0
 23 30  1  0  0  0  0
 24 25  2  0  0  0  0
 24 28  1  0  0  0  0
 25 31  1  0  0  0  0
 26 27  1  0  0  0  0
 26 46  1  0  0  0  0
 27 47  1  0  0  0  0
 27 48  1  0  0  0  0
 28 29  2  0  0  0  0
 28 35  1  0  0  0  0
 29 37  1  0  0  0  0
 32 34  2  0  0  0  0
 32 50  1  0  0  0  0
 33 36  2  0  0  0  0
 33 51  1  0  0  0  0
 34 36  1  0  0  0  0
 35 39  2  0  0  0  0
 35 54  1  0  0  0  0
 36 55  1  0  0  0  0
 37 40  2  0  0  0  0
 37 56  1  0  0  0  0
 38 41  1  0  0  0  0
 38 42  1  0  0  0  0
 38 59  1  0  0  0  0
 39 40  1  0  0  0  0
 39 60  1  0  0  0  0
 41 61  1  0  0  0  0
 41 62  1  0  0  0  0
 42 63  1  0  0  0  0
 42 64  1  0  0  0  0
M  END
> <PUBCHEM_COMPOUND_CID>
13009346

> <PUBCHEM_CONFORMER_RMSD>
1

> <PUBCHEM_CONFORMER_DIVERSEORDER>
1
7
3
5
6
8
4
2

> <PUBCHEM_MMFF94_PARTIAL_CHARGES>
55
1 -0.56
10 -0.68
11 -0.04
12 -0.05
13 -0.11
14 -0.64
15 0.54
16 -0.05
17 0.28
18 -0.01
19 -0.05
2 -0.68
20 -0.15
21 0.28
23 0.09
24 -0.01
25 0.09
26 0.28
27 0.28
29 -0.15
3 -0.68
30 0.54
31 0.54
32 -0.15
33 -0.15
34 0.08
35 -0.15
36 -0.15
37 -0.15
38 0.27
39 -0.15
4 -0.68
40 0.08
41 0.28
42 0.28
49 0.27
5 -0.57
50 0.15
51 0.15
52 0.4
53 0.4
54 0.15
55 0.15
56 0.15
57 0.4
58 0.36
6 -0.57
60 0.15
65 0.45
66 0.45
67 0.4
68 0.4
7 -0.53
8 -0.53
9 -0.68

> <PUBCHEM_EFFECTIVE_ROTOR_COUNT>
6.4

> <PUBCHEM_PHARMACOPHORE_FEATURES>
26
1 1 acceptor
1 10 acceptor
1 10 donor
1 11 cation
1 12 cation
1 12 donor
1 14 donor
1 2 acceptor
1 2 donor
1 3 acceptor
1 3 donor
1 4 acceptor
1 4 donor
1 5 acceptor
1 6 acceptor
1 7 donor
1 8 donor
1 9 acceptor
1 9 donor
5 11 16 18 20 22 rings
5 12 19 24 28 29 rings
5 13 23 25 30 31 rings
6 1 15 17 21 26 27 rings
6 16 18 19 23 24 25 rings
6 20 22 32 33 34 36 rings
6 28 29 35 37 39 40 rings

> <PUBCHEM_HEAVY_ATOM_COUNT>
42

> <PUBCHEM_ATOM_DEF_STEREO_COUNT>
4

> <PUBCHEM_ATOM_UDEF_STEREO_COUNT>
0

> <PUBCHEM_BOND_DEF_STEREO_COUNT>
0

> <PUBCHEM_BOND_UDEF_STEREO_COUNT>
0

> <PUBCHEM_ISOTOPIC_ATOM_COUNT>
0

> <PUBCHEM_COMPONENT_COUNT>
1

> <PUBCHEM_CACTVS_TAUTO_COUNT>
128

> <PUBCHEM_CONFORMER_ID>
00C681C200000001

> <PUBCHEM_MMFF94_ENERGY>
157.9353

> <PUBCHEM_FEATURE_SELFOVERLAP>
132.45

> <PUBCHEM_SHAPE_FINGERPRINT>
10050765 1 17834114148383443966
10190108 129 18198082316486078058
102385 1 17762054342110187310
1100329 8 18267020737854516870
11227688 84 18268418041371915191
11445158 3 17968656137159232814
11763715 3 18050034124168398223
12058002 1 17486531257910890454
12758862 65 17751669721263688307
12788726 201 18188486857431474128
13140716 1 18194688292185850735
13540713 5 17912643811543767207
13617811 41 18409173208028716212
13911987 19 18335403670049435868
140371 6 18335711506912701829
14068700 686 18197494026784577836
14790565 3 18410858776413088044
14955137 171 18408890662914116648
15200665 1 17617941327525251401
15320467 1 18411133615786489748
15439362 3 18050848016029076485
16112460 7 18270126840959701177
18393751 57 18198601394034236866
19319366 153 18056204815921435605
19611394 137 18114474451583053067
20028762 73 18272086162534153343
20642791 268 18129681724809613601
21033648 29 17916567813207065576
21133410 127 17538850184166100796
21133410 171 17249724852445995395
21796203 349 18118995643454360273
22311459 1 18410574015891981927
22440779 20 17039289312708448779
24771293 8 18129648837728277608
24771750 20 18043539515136696885
3178227 256 18337685199463323403
3380486 145 18120676642647442537
4149490 64 18118687854537392315
469060 322 18339655433652564432
5104073 3 18194403290930337707
5309563 4 18410577245480093349
6004065 56 18409447025095009955

> <PUBCHEM_SHAPE_MULTIPOLES>
785.72
13.66
7.92
1.28
10.21
8.03
-1.15
-8.49
-5.31
-3.92
2.05
0.3
-0.26
0.99

> <PUBCHEM_SHAPE_SELFOVERLAP>
1782.178

> <PUBCHEM_SHAPE_VOLUME>
408.8

> <PUBCHEM_COORDINATE_TYPE>
2
5
10

$$$$
