3155438
  -OEChem-10052120443D

 40 42  0     1  0  0  0  0  0999 V2000
    1.2225    2.4005   -1.6461 F   0  0  0  0  0  0  0  0  0  0  0  0
    0.9783   -2.7382    0.7393 O   0  0  0  0  0  0  0  0  0  0  0  0
   -2.3285   -2.1135    0.4516 N   0  0  0  0  0  0  0  0  0  0  0  0
   -1.3342   -2.9182    0.8846 N   0  0  0  0  0  0  0  0  0  0  0  0
    3.2790   -2.6305    0.4839 N   0  0  0  0  0  0  0  0  0  0  0  0
    4.0251    0.4211   -1.3031 N   0  0  0  0  0  0  0  0  0  0  0  0
   -2.8276    0.0150   -0.7333 C   0  0  0  0  0  0  0  0  0  0  0  0
   -1.8918   -0.9757   -0.1761 C   0  0  0  0  0  0  0  0  0  0  0  0
   -0.5185   -1.0298   -0.1356 C   0  0  0  0  0  0  0  0  0  0  0  0
    0.5734   -0.1548   -0.6293 C   0  0  1  0  0  0  0  0  0  0  0  0
   -2.2223    0.7586   -1.9729 C   0  0  0  0  0  0  0  0  0  0  0  0
   -3.2072    1.1158    0.3158 C   0  0  0  0  0  0  0  0  0  0  0  0
   -4.2072   -0.5467   -1.2392 C   0  0  0  0  0  0  0  0  0  0  0  0
   -0.2523   -2.2431    0.5087 C   0  0  0  0  0  0  0  0  0  0  0  0
    0.4154    1.0990    0.1678 C   0  0  0  0  0  0  0  0  0  0  0  0
    1.9378   -0.8138   -0.3873 C   0  0  0  0  0  0  0  0  0  0  0  0
    2.0805   -2.0106    0.2517 C   0  0  0  0  0  0  0  0  0  0  0  0
    0.7532    2.3293   -0.3926 C   0  0  0  0  0  0  0  0  0  0  0  0
   -0.0705    1.0330    1.4722 C   0  0  0  0  0  0  0  0  0  0  0  0
    3.0912   -0.1316   -0.8932 C   0  0  0  0  0  0  0  0  0  0  0  0
    0.6045    3.4980    0.3541 C   0  0  0  0  0  0  0  0  0  0  0  0
   -0.2191    2.2018    2.2191 C   0  0  0  0  0  0  0  0  0  0  0  0
    0.1184    3.4343    1.6600 C   0  0  0  0  0  0  0  0  0  0  0  0
    0.4455    0.0179   -1.7044 H   0  0  0  0  0  0  0  0  0  0  0  0
   -2.9865    1.3645   -2.4754 H   0  0  0  0  0  0  0  0  0  0  0  0
   -1.4281    1.4534   -1.7084 H   0  0  0  0  0  0  0  0  0  0  0  0
   -1.8356    0.0455   -2.7099 H   0  0  0  0  0  0  0  0  0  0  0  0
   -2.3918    1.8167    0.4880 H   0  0  0  0  0  0  0  0  0  0  0  0
   -4.0542    1.7186   -0.0333 H   0  0  0  0  0  0  0  0  0  0  0  0
   -3.4889    0.6672    1.2750 H   0  0  0  0  0  0  0  0  0  0  0  0
   -4.8297    0.2356   -1.6883 H   0  0  0  0  0  0  0  0  0  0  0  0
   -4.0489   -1.3278   -1.9918 H   0  0  0  0  0  0  0  0  0  0  0  0
   -4.7772   -0.9901   -0.4149 H   0  0  0  0  0  0  0  0  0  0  0  0
   -3.2822   -2.4083    0.6192 H   0  0  0  0  0  0  0  0  0  0  0  0
   -0.2976    0.1084    1.9930 H   0  0  0  0  0  0  0  0  0  0  0  0
    0.8682    4.4574   -0.0812 H   0  0  0  0  0  0  0  0  0  0  0  0
   -0.5859    2.1520    3.2403 H   0  0  0  0  0  0  0  0  0  0  0  0
    4.1495   -2.2119    0.1834 H   0  0  0  0  0  0  0  0  0  0  0  0
    3.2821   -3.5203    0.9662 H   0  0  0  0  0  0  0  0  0  0  0  0
    0.0053    4.3440    2.2423 H   0  0  0  0  0  0  0  0  0  0  0  0
  1 18  1  0  0  0  0
  2 14  1  0  0  0  0
  2 17  1  0  0  0  0
  3  4  1  0  0  0  0
  3  8  1  0  0  0  0
  3 34  1  0  0  0  0
  4 14  2  0  0  0  0
  5 17  1  0  0  0  0
  5 38  1  0  0  0  0
  5 39  1  0  0  0  0
  6 20  3  0  0  0  0
  7  8  1  0  0  0  0
  7 11  1  0  0  0  0
  7 12  1  0  0  0  0
  7 13  1  0  0  0  0
  8  9  2  0  0  0  0
  9 10  1  0  0  0  0
  9 14  1  0  0  0  0
 10 15  1  0  0  0  0
 10 16  1  0  0  0  0
 10 24  1  0  0  0  0
 11 25  1  0  0  0  0
 11 26  1  0  0  0  0
 11 27  1  0  0  0  0
 12 28  1  0  0  0  0
 12 29  1  0  0  0  0
 12 30  1  0  0  0  0
 13 31  1  0  0  0  0
 13 32  1  0  0  0  0
 13 33  1  0  0  0  0
 15 18  1  0  0  0  0
 15 19  2  0  0  0  0
 16 17  2  0  0  0  0
 16 20  1  0  0  0  0
 18 21  2  0  0  0  0
 19 22  1  0  0  0  0
 19 35  1  0  0  0  0
 21 23  1  0  0  0  0
 21 36  1  0  0  0  0
 22 23  2  0  0  0  0
 22 37  1  0  0  0  0
 23 40  1  0  0  0  0
M  END
> <PUBCHEM_COMPOUND_CID>
3155438

> <PUBCHEM_CONFORMER_RMSD>
0.6

> <PUBCHEM_CONFORMER_DIVERSEORDER>
1
4
3
2

> <PUBCHEM_MMFF94_PARTIAL_CHARGES>
27
1 -0.19
10 0.46
14 0.35
15 -0.14
16 -0.07
17 0.18
18 0.19
19 -0.15
2 -0.14
20 0.49
21 -0.15
22 -0.15
23 -0.15
3 0.3
34 0.27
35 0.15
36 0.15
37 0.15
38 0.4
39 0.4
4 -0.71
40 0.15
5 -0.9
6 -0.56
7 0.18
8 -0.33
9 -0.18

> <PUBCHEM_EFFECTIVE_ROTOR_COUNT>
2.4

> <PUBCHEM_PHARMACOPHORE_FEATURES>
8
1 3 donor
1 5 cation
1 5 donor
1 6 acceptor
4 7 11 12 13 hydrophobe
5 3 4 8 9 14 rings
6 15 18 19 21 22 23 rings
6 2 9 10 14 16 17 rings

> <PUBCHEM_HEAVY_ATOM_COUNT>
23

> <PUBCHEM_ATOM_DEF_STEREO_COUNT>
0

> <PUBCHEM_ATOM_UDEF_STEREO_COUNT>
1

> <PUBCHEM_BOND_DEF_STEREO_COUNT>
0

> <PUBCHEM_BOND_UDEF_STEREO_COUNT>
0

> <PUBCHEM_ISOTOPIC_ATOM_COUNT>
0

> <PUBCHEM_COMPONENT_COUNT>
1

> <PUBCHEM_CACTVS_TAUTO_COUNT>
4

> <PUBCHEM_CONFORMER_ID>
003025EE00000001

> <PUBCHEM_MMFF94_ENERGY>
66.0818

> <PUBCHEM_FEATURE_SELFOVERLAP>
40.712

> <PUBCHEM_SHAPE_FINGERPRINT>
10165383 225 17257676923599501521
104564 63 17694491551590419529
1100329 8 18196397933692826400
11112241 14 15908264969270095528
11640471 11 14027962036158457360
12035759 4 18192729855707263750
12788726 201 18057055609528795680
13027679 85 18340782540534406729
13132413 78 18270684164701337917
13134695 92 18129639964230846813
13140716 1 17543354207881896402
14142880 1 17256223961911904570
14617773 55 18054792784559960982
14817 1 15657954201490039277
15852999 172 17544146870071327005
16945 1 18333733541381681311
18981168 100 17901369414558707197
19049666 15 17837499909098073257
20510252 161 17979901731867180218
20600515 1 18339344323896941536
20691752 17 18267567040672753393
20775438 99 17550629616499719599
20905425 154 17547023278309807166
22112679 90 17987512607278488323
22182313 1 17756977184213661455
229495 10 17026888105536128099
2334 1 18335421274693490022
23419403 2 17625211456921040920
23558518 356 17908710523038048590
23559900 14 18046618182201530239
238 59 17769080590715183631
2748010 2 17614279291994723447
283562 15 17978778022193575250
350125 39 18046639068427069135
3524813 1 17976267051188842254
394222 165 17531247189095347098
5845 1 12939575168231767912
6438718 38 17488193577868819865
81228 2 18055643823729166498

> <PUBCHEM_SHAPE_MULTIPOLES>
440.26
4.87
4.09
1.62
0.75
1.76
0
-2.3
2.39
-1.14
-1.96
0.15
0.92
-0.42

> <PUBCHEM_SHAPE_SELFOVERLAP>
968.16

> <PUBCHEM_SHAPE_VOLUME>
240

> <PUBCHEM_COORDINATE_TYPE>
2
5
10

$$$$
