49830726
  -OEChem-10062121553D

 39 41  0     0  0  0  0  0  0999 V2000
    1.8213   -1.6556   -0.0504 S   0  0  0  0  0  0  0  0  0  0  0  0
   -4.4962    1.1859   -0.0489 N   0  0  0  0  0  0  0  0  0  0  0  0
   -0.8710   -1.8106   -0.0707 N   0  0  0  0  0  0  0  0  0  0  0  0
   -2.6877   -0.2710   -0.0596 N   0  0  0  0  0  0  0  0  0  0  0  0
   -4.9537   -1.0909   -0.0877 N   0  0  0  0  0  0  0  0  0  0  0  0
    0.1877    0.3477   -0.0315 N   0  0  0  0  0  0  0  0  0  0  0  0
   -3.6354    2.3486   -0.0248 C   0  0  0  0  0  0  0  0  0  0  0  0
   -3.1241    2.5652    1.3933 C   0  0  0  0  0  0  0  0  0  0  0  0
   -4.4056    3.5623   -0.5285 C   0  0  0  0  0  0  0  0  0  0  0  0
   -4.0254   -0.1154   -0.0661 C   0  0  0  0  0  0  0  0  0  0  0  0
   -2.2634   -1.5517   -0.0767 C   0  0  0  0  0  0  0  0  0  0  0  0
    2.4887   -0.0761   -0.0247 C   0  0  0  0  0  0  0  0  0  0  0  0
    3.9183    0.1029   -0.0167 C   0  0  0  0  0  0  0  0  0  0  0  0
    0.2503   -0.9651   -0.0504 C   0  0  0  0  0  0  0  0  0  0  0  0
   -3.1116   -2.6401   -0.0994 C   0  0  0  0  0  0  0  0  0  0  0  0
    1.4719    0.8557   -0.0165 C   0  0  0  0  0  0  0  0  0  0  0  0
    4.5394    0.8025   -1.0513 C   0  0  0  0  0  0  0  0  0  0  0  0
    4.6812   -0.4233    1.0256 C   0  0  0  0  0  0  0  0  0  0  0  0
   -4.4599   -2.3464   -0.1038 C   0  0  0  0  0  0  0  0  0  0  0  0
    5.9235    0.9759   -1.0436 C   0  0  0  0  0  0  0  0  0  0  0  0
    6.0652   -0.2501    1.0335 C   0  0  0  0  0  0  0  0  0  0  0  0
    6.6864    0.4495   -0.0012 C   0  0  0  0  0  0  0  0  0  0  0  0
   -2.7819    2.2064   -0.6997 H   0  0  0  0  0  0  0  0  0  0  0  0
   -5.5013    1.3098   -0.0046 H   0  0  0  0  0  0  0  0  0  0  0  0
   -2.4931    3.4590    1.4444 H   0  0  0  0  0  0  0  0  0  0  0  0
   -2.5249    1.7193    1.7454 H   0  0  0  0  0  0  0  0  0  0  0  0
   -3.9523    2.6969    2.0990 H   0  0  0  0  0  0  0  0  0  0  0  0
   -3.7687    4.4530   -0.5380 H   0  0  0  0  0  0  0  0  0  0  0  0
   -4.7702    3.3959   -1.5482 H   0  0  0  0  0  0  0  0  0  0  0  0
   -5.2763    3.7741    0.1024 H   0  0  0  0  0  0  0  0  0  0  0  0
   -0.6588   -2.8062   -0.0841 H   0  0  0  0  0  0  0  0  0  0  0  0
   -2.7613   -3.6646   -0.1128 H   0  0  0  0  0  0  0  0  0  0  0  0
    1.6076    1.9294    0.0005 H   0  0  0  0  0  0  0  0  0  0  0  0
    3.9615    1.2179   -1.8735 H   0  0  0  0  0  0  0  0  0  0  0  0
    4.2188   -0.9642    1.8480 H   0  0  0  0  0  0  0  0  0  0  0  0
   -5.2031   -3.1364   -0.1211 H   0  0  0  0  0  0  0  0  0  0  0  0
    6.4074    1.5202   -1.8493 H   0  0  0  0  0  0  0  0  0  0  0  0
    6.6592   -0.6579    1.8461 H   0  0  0  0  0  0  0  0  0  0  0  0
    7.7640    0.5846    0.0051 H   0  0  0  0  0  0  0  0  0  0  0  0
  1 12  1  0  0  0  0
  1 14  1  0  0  0  0
  2  7  1  0  0  0  0
  2 10  1  0  0  0  0
  2 24  1  0  0  0  0
  3 11  1  0  0  0  0
  3 14  1  0  0  0  0
  3 31  1  0  0  0  0
  4 10  1  0  0  0  0
  4 11  2  0  0  0  0
  5 10  2  0  0  0  0
  5 19  1  0  0  0  0
  6 14  2  0  0  0  0
  6 16  1  0  0  0  0
  7  8  1  0  0  0  0
  7  9  1  0  0  0  0
  7 23  1  0  0  0  0
  8 25  1  0  0  0  0
  8 26  1  0  0  0  0
  8 27  1  0  0  0  0
  9 28  1  0  0  0  0
  9 29  1  0  0  0  0
  9 30  1  0  0  0  0
 11 15  1  0  0  0  0
 12 13  1  0  0  0  0
 12 16  2  0  0  0  0
 13 17  2  0  0  0  0
 13 18  1  0  0  0  0
 15 19  2  0  0  0  0
 15 32  1  0  0  0  0
 16 33  1  0  0  0  0
 17 20  1  0  0  0  0
 17 34  1  0  0  0  0
 18 21  2  0  0  0  0
 18 35  1  0  0  0  0
 19 36  1  0  0  0  0
 20 22  2  0  0  0  0
 20 37  1  0  0  0  0
 21 22  1  0  0  0  0
 21 38  1  0  0  0  0
 22 39  1  0  0  0  0
M  END
> <PUBCHEM_COMPOUND_CID>
49830726

> <PUBCHEM_CONFORMER_RMSD>
0.8

> <PUBCHEM_CONFORMER_DIVERSEORDER>
1
11
67
41
57
40
3
10
51
31
38
44
71
61
48
26
33
5
62
49
7
17
53
4
25
43
24
55
65
9
32
30
42
28
64
20
14
36
46
21
34
52
29
2
50
39
27
15
68
13
16
35
8
69
37
59
58
66
70
12
45
22
60
54
23
63
18
19
6
56
47

> <PUBCHEM_MMFF94_PARTIAL_CHARGES>
30
1 -0.08
10 0.72
11 0.41
12 -0.01
13 0.05
14 0.46
15 -0.15
16 0.08
17 -0.15
18 -0.15
19 0.16
2 -0.87
20 -0.15
21 -0.15
22 -0.15
24 0.4
3 -0.58
31 0.4
32 0.15
33 0.15
34 0.15
35 0.15
36 0.15
37 0.15
38 0.15
39 0.15
4 -0.62
5 -0.62
6 -0.57
7 0.37

> <PUBCHEM_EFFECTIVE_ROTOR_COUNT>
5

> <PUBCHEM_PHARMACOPHORE_FEATURES>
8
1 2 donor
1 3 donor
3 3 6 14 cation
3 7 8 9 hydrophobe
4 2 4 5 10 cation
5 1 6 12 14 16 rings
6 13 17 18 20 21 22 rings
6 4 5 10 11 15 19 rings

> <PUBCHEM_HEAVY_ATOM_COUNT>
22

> <PUBCHEM_ATOM_DEF_STEREO_COUNT>
0

> <PUBCHEM_ATOM_UDEF_STEREO_COUNT>
0

> <PUBCHEM_BOND_DEF_STEREO_COUNT>
0

> <PUBCHEM_BOND_UDEF_STEREO_COUNT>
0

> <PUBCHEM_ISOTOPIC_ATOM_COUNT>
0

> <PUBCHEM_COMPONENT_COUNT>
1

> <PUBCHEM_CACTVS_TAUTO_COUNT>
13

> <PUBCHEM_CONFORMER_ID>
02F85B4600000001

> <PUBCHEM_MMFF94_ENERGY>
62.675

> <PUBCHEM_FEATURE_SELFOVERLAP>
40.596

> <PUBCHEM_SHAPE_FINGERPRINT>
100830 39 18411417276806868192
10411042 1 18050567649850240647
10595046 47 18261392299635940654
10675989 125 17040632791591119741
10912923 1 17895188922539592970
10937287 8 17481157704390093233
11315181 36 18186800322115132878
12107183 9 17901657177378439770
12236239 1 18186799201914710578
12390115 104 18271818865143661897
12403259 415 17917706941913846968
12596602 18 17313105284640291267
12788726 201 18335695075122708699
12969540 114 16558744611919944078
13073987 5 18334853935678754602
13167372 99 18333730213583906004
13403585 85 18271801358698578120
13631057 29 18341328981060888083
14251764 75 17837781024026239785
14466204 15 18410852153414937272
14573314 32 17988650679286210854
14790565 3 18335142020662627798
15021287 119 17240483594299135164
15183329 4 18334577949691184790
1601671 61 18411699877133068932
16079462 125 17561072632147635376
16120349 21 18118674427984094522
16126227 98 18199192798400013401
17844677 252 18340491174654344696
19489759 90 18342457058078358418
20281389 69 18408602569915217816
20567600 75 17846787303998717078
21033648 29 17060044952598310170
21033650 10 18193022407394035758
21236236 1 18411418410129211869
21267235 1 18265901426860347499
21279426 13 18200318702242568446
21315763 129 18340206388278772468
21315764 268 18271799185487733608
21421861 104 17678447568487168802
21792961 116 16988853757672133160
22061861 79 16630254636545984604
23081809 10 17967252010141255710
23402539 116 18410006675922581030
23559900 14 18269827782772249217
23569914 152 16121640120891950812
23569943 247 16299768877625133602
3004659 81 18260548944690885054
34797466 226 17703519908191794388
350125 39 18410576206230051769
397830 11 12757729689557694260
4214541 1 18410292518833357317
441001 317 18272088283767260641
445580 37 18411429418763504996
5104073 3 18337392634527744090
5283173 99 18342181029410140860
531348 171 18060138708599537630
6299153 45 18189611645179040562
6327066 14 18118114785087114237
7062679 6 18408045104423985012
7808743 9 18337389340620078297
9981440 41 18409169883598175571

> <PUBCHEM_SHAPE_MULTIPOLES>
431.69
15.83
3.05
0.92
15.31
1.38
0.12
4.25
-0.15
-7.05
-0.07
0.74
0.34
-0.88

> <PUBCHEM_SHAPE_SELFOVERLAP>
912.453

> <PUBCHEM_SHAPE_VOLUME>
242.8

> <PUBCHEM_COORDINATE_TYPE>
2
5
10

$$$$
