49830864
  -OEChem-10052120433D

 23 24  0     0  0  0  0  0  0999 V2000
    2.9135    0.0446   -0.0001 O   0  0  0  0  0  0  0  0  0  0  0  0
    1.6754    1.9853    0.0004 O   0  0  0  0  0  0  0  0  0  0  0  0
   -0.7265    0.2619   -0.0001 N   0  0  0  0  0  0  0  0  0  0  0  0
   -0.7426   -1.9748   -0.0002 N   0  0  0  0  0  0  0  0  0  0  0  0
    1.6166   -2.3375   -0.0001 N   0  0  0  0  0  0  0  0  0  0  0  0
    0.5859   -0.1356    0.0001 C   0  0  0  0  0  0  0  0  0  0  0  0
   -1.4992   -0.8963    0.0000 C   0  0  0  0  0  0  0  0  0  0  0  0
    0.5483   -1.5100   -0.0002 C   0  0  0  0  0  0  0  0  0  0  0  0
   -1.2633    1.5463   -0.0003 C   0  0  0  0  0  0  0  0  0  0  0  0
   -2.9155   -0.7300    0.0007 C   0  0  0  0  0  0  0  0  0  0  0  0
   -2.5981    1.6947   -0.0005 C   0  0  0  0  0  0  0  0  0  0  0  0
   -3.4416    0.5100    0.0002 C   0  0  0  0  0  0  0  0  0  0  0  0
    1.7217    0.7345    0.0000 C   0  0  0  0  0  0  0  0  0  0  0  0
    4.1254    0.8069    0.0001 C   0  0  0  0  0  0  0  0  0  0  0  0
   -0.6098    2.4064   -0.0005 H   0  0  0  0  0  0  0  0  0  0  0  0
   -3.5544   -1.6060    0.0013 H   0  0  0  0  0  0  0  0  0  0  0  0
   -3.0657    2.6718   -0.0009 H   0  0  0  0  0  0  0  0  0  0  0  0
   -4.5162    0.6566    0.0006 H   0  0  0  0  0  0  0  0  0  0  0  0
    2.5760   -2.0054    0.0002 H   0  0  0  0  0  0  0  0  0  0  0  0
    1.5126   -3.3474   -0.0001 H   0  0  0  0  0  0  0  0  0  0  0  0
    4.9669    0.1092   -0.0002 H   0  0  0  0  0  0  0  0  0  0  0  0
    4.1795    1.4262    0.9001 H   0  0  0  0  0  0  0  0  0  0  0  0
    4.1794    1.4269   -0.8994 H   0  0  0  0  0  0  0  0  0  0  0  0
  1 13  1  0  0  0  0
  1 14  1  0  0  0  0
  2 13  2  0  0  0  0
  3  6  1  0  0  0  0
  3  7  1  0  0  0  0
  3  9  1  0  0  0  0
  4  7  2  0  0  0  0
  4  8  1  0  0  0  0
  5  8  1  0  0  0  0
  5 19  1  0  0  0  0
  5 20  1  0  0  0  0
  6  8  2  0  0  0  0
  6 13  1  0  0  0  0
  7 10  1  0  0  0  0
  9 11  2  0  0  0  0
  9 15  1  0  0  0  0
 10 12  2  0  0  0  0
 10 16  1  0  0  0  0
 11 12  1  0  0  0  0
 11 17  1  0  0  0  0
 12 18  1  0  0  0  0
 14 21  1  0  0  0  0
 14 22  1  0  0  0  0
 14 23  1  0  0  0  0
M  END
> <PUBCHEM_COMPOUND_CID>
49830864

> <PUBCHEM_CONFORMER_RMSD>
0.6

> <PUBCHEM_CONFORMER_DIVERSEORDER>
1
3
2

> <PUBCHEM_MMFF94_PARTIAL_CHARGES>
20
1 -0.43
10 -0.11
11 -0.15
12 -0.15
13 0.81
14 0.28
15 0.15
16 0.15
17 0.15
18 0.15
19 0.4
2 -0.57
20 0.4
3 0.33
4 -0.57
5 -0.88
6 -0.24
7 0.14
8 0.31
9 -0.18

> <PUBCHEM_EFFECTIVE_ROTOR_COUNT>
2

> <PUBCHEM_PHARMACOPHORE_FEATURES>
6
1 2 acceptor
1 5 cation
1 5 donor
3 3 4 7 cation
5 3 4 6 7 8 rings
6 3 7 9 10 11 12 rings

> <PUBCHEM_HEAVY_ATOM_COUNT>
14

> <PUBCHEM_ATOM_DEF_STEREO_COUNT>
0

> <PUBCHEM_ATOM_UDEF_STEREO_COUNT>
0

> <PUBCHEM_BOND_DEF_STEREO_COUNT>
0

> <PUBCHEM_BOND_UDEF_STEREO_COUNT>
0

> <PUBCHEM_ISOTOPIC_ATOM_COUNT>
0

> <PUBCHEM_COMPONENT_COUNT>
1

> <PUBCHEM_CACTVS_TAUTO_COUNT>
3

> <PUBCHEM_CONFORMER_ID>
02F85BD000000001

> <PUBCHEM_MMFF94_ENERGY>
30.0441

> <PUBCHEM_FEATURE_SELFOVERLAP>
30.563

> <PUBCHEM_SHAPE_FINGERPRINT>
10608611 8 18337670802400559701
10967382 1 18410575063214635685
11132069 177 18410288137914169320
12346645 44 18410856551144878568
13140716 1 18122066665303197227
13380535 21 18338808814125538115
13380535 76 18409446985754424082
14144814 61 18409446973011706792
14325111 11 18410573963750669056
14614273 12 18261105253854675293
14897335 6 18411413982028414223
15219456 202 18336268925338564555
15536298 74 18271243807724977254
15775835 57 18411423886286438705
16945 1 18410856589868220871
193761 8 17906170655119217573
19973954 147 18338799988231391497
20510252 161 18271810188977486352
20645476 183 17679319704308521190
21501502 16 18339638919798229027
21524375 3 18409447007265962926
2334 1 17834394905424914917
23402539 116 18270953648128962293
23402655 69 18269823239160892029
23463225 33 18334289825988964354
23552423 10 18264487295882071579
23559900 14 18054509106872364846
2748010 2 18194121819847225543
305870 269 18261670372413094490
43471831 8 18334852818570786114
528886 8 18411131454752976689
53812653 166 18342454833390748688
54173680 148 18048599510238600506
63268167 104 18339645512472795321
6333449 129 18412261770165845781
7364860 26 18270118985512138566

> <PUBCHEM_SHAPE_MULTIPOLES>
261.43
5.49
2.18
0.58
2.26
0.49
0
-1.92
0
0.16
0
-0.04
-0.01
0

> <PUBCHEM_SHAPE_SELFOVERLAP>
568.133

> <PUBCHEM_SHAPE_VOLUME>
144.2

> <PUBCHEM_COORDINATE_TYPE>
2
5
10

$$$$
