21362732
  -OEChem-10062122043D

 28 30  0     0  0  0  0  0  0999 V2000
    1.9021    3.8289   -0.0025 Cl  0  0  0  0  0  0  0  0  0  0  0  0
    4.4711   -0.3616    0.0041 O   0  0  0  0  0  0  0  0  0  0  0  0
   -0.7251   -1.3885   -0.0020 N   0  0  0  0  0  0  0  0  0  0  0  0
    2.2978   -1.2758   -0.0008 N   0  0  0  0  0  0  0  0  0  0  0  0
   -4.4106   -1.2425   -0.0001 N   0  0  0  0  0  0  0  0  0  0  0  0
    0.0721   -0.2678   -0.0008 C   0  0  0  0  0  0  0  0  0  0  0  0
   -0.7744    0.8415    0.0002 C   0  0  0  0  0  0  0  0  0  0  0  0
   -2.1192    0.3527    0.0008 C   0  0  0  0  0  0  0  0  0  0  0  0
   -2.0537   -1.0403   -0.0011 C   0  0  0  0  0  0  0  0  0  0  0  0
    1.4671   -0.1554   -0.0012 C   0  0  0  0  0  0  0  0  0  0  0  0
   -0.1984    2.1293    0.0006 C   0  0  0  0  0  0  0  0  0  0  0  0
    2.0137    1.1307   -0.0007 C   0  0  0  0  0  0  0  0  0  0  0  0
   -3.3838    0.9620    0.0026 C   0  0  0  0  0  0  0  0  0  0  0  0
    1.1951    2.2576   -0.0001 C   0  0  0  0  0  0  0  0  0  0  0  0
   -3.1936   -1.8337   -0.0019 C   0  0  0  0  0  0  0  0  0  0  0  0
   -4.4784    0.1078    0.0022 C   0  0  0  0  0  0  0  0  0  0  0  0
    3.6988   -1.3147    0.0002 C   0  0  0  0  0  0  0  0  0  0  0  0
    4.2193   -2.7302    0.0004 C   0  0  0  0  0  0  0  0  0  0  0  0
   -0.3821   -2.3391   -0.0033 H   0  0  0  0  0  0  0  0  0  0  0  0
   -0.8369    3.0090    0.0010 H   0  0  0  0  0  0  0  0  0  0  0  0
    3.0806    1.3123   -0.0016 H   0  0  0  0  0  0  0  0  0  0  0  0
   -3.5082    2.0387    0.0042 H   0  0  0  0  0  0  0  0  0  0  0  0
   -3.1679   -2.9155   -0.0034 H   0  0  0  0  0  0  0  0  0  0  0  0
    1.8200   -2.1739   -0.0011 H   0  0  0  0  0  0  0  0  0  0  0  0
   -5.4863    0.5123    0.0036 H   0  0  0  0  0  0  0  0  0  0  0  0
    3.8468   -3.2628   -0.8792 H   0  0  0  0  0  0  0  0  0  0  0  0
    3.8888   -3.2450    0.9069 H   0  0  0  0  0  0  0  0  0  0  0  0
    5.3125   -2.7233   -0.0264 H   0  0  0  0  0  0  0  0  0  0  0  0
  1 14  1  0  0  0  0
  2 17  2  0  0  0  0
  3  6  1  0  0  0  0
  3  9  1  0  0  0  0
  3 19  1  0  0  0  0
  4 10  1  0  0  0  0
  4 17  1  0  0  0  0
  4 24  1  0  0  0  0
  5 15  2  0  0  0  0
  5 16  1  0  0  0  0
  6  7  2  0  0  0  0
  6 10  1  0  0  0  0
  7  8  1  0  0  0  0
  7 11  1  0  0  0  0
  8  9  2  0  0  0  0
  8 13  1  0  0  0  0
  9 15  1  0  0  0  0
 10 12  2  0  0  0  0
 11 14  2  0  0  0  0
 11 20  1  0  0  0  0
 12 14  1  0  0  0  0
 12 21  1  0  0  0  0
 13 16  2  0  0  0  0
 13 22  1  0  0  0  0
 15 23  1  0  0  0  0
 16 25  1  0  0  0  0
 17 18  1  0  0  0  0
 18 26  1  0  0  0  0
 18 27  1  0  0  0  0
 18 28  1  0  0  0  0
M  END
> <PUBCHEM_COMPOUND_CID>
21362732

> <PUBCHEM_CONFORMER_RMSD>
0.6

> <PUBCHEM_CONFORMER_DIVERSEORDER>
1
2
3
4

> <PUBCHEM_MMFF94_PARTIAL_CHARGES>
23
1 -0.18
10 0.12
11 -0.15
12 -0.15
13 -0.15
14 0.18
15 0.16
16 0.16
17 0.57
18 0.06
19 0.27
2 -0.57
20 0.15
21 0.15
22 0.15
23 0.15
24 0.37
25 0.15
3 0.03
4 -0.55
5 -0.62
6 -0.15
9 -0.15

> <PUBCHEM_EFFECTIVE_ROTOR_COUNT>
2

> <PUBCHEM_PHARMACOPHORE_FEATURES>
8
1 2 acceptor
1 3 cation
1 3 donor
1 4 donor
1 5 acceptor
5 3 6 7 8 9 rings
6 5 8 9 13 15 16 rings
6 6 7 10 11 12 14 rings

> <PUBCHEM_HEAVY_ATOM_COUNT>
18

> <PUBCHEM_ATOM_DEF_STEREO_COUNT>
0

> <PUBCHEM_ATOM_UDEF_STEREO_COUNT>
0

> <PUBCHEM_BOND_DEF_STEREO_COUNT>
0

> <PUBCHEM_BOND_UDEF_STEREO_COUNT>
0

> <PUBCHEM_ISOTOPIC_ATOM_COUNT>
0

> <PUBCHEM_COMPONENT_COUNT>
1

> <PUBCHEM_CACTVS_TAUTO_COUNT>
4

> <PUBCHEM_CONFORMER_ID>
0145F82C00000001

> <PUBCHEM_MMFF94_ENERGY>
43.2495

> <PUBCHEM_FEATURE_SELFOVERLAP>
40.782

> <PUBCHEM_SHAPE_FINGERPRINT>
10411042 1 18338798914310563682
10608611 8 18336823216870493469
10967382 1 18194402427325185093
1100329 8 18197503913431041705
11578080 2 17387106763834163740
11680986 33 18191029104218244307
12032990 46 18410576154115424755
12403259 226 18408599271406929173
12553582 1 18264197033028013002
12839892 36 17763725990520676352
13140716 1 18411146857133590737
138480 1 18410574015586045992
13955234 65 18196374938147552673
14115302 16 17749403554362461934
14790565 3 17546733655575388248
14866123 147 17620758280072114242
15042514 8 17978229357606568802
15099037 51 18337387133133060069
15196674 1 18410573959381673350
15352361 1 18410855417521815446
15442244 35 18412266133889782209
15536298 74 18342175621687775056
16945 1 18410576184428258565
17492 89 18267020742477064175
17804303 29 18408889520864285695
18186145 218 17676478489011029867
200 152 18060411418227965463
20645477 70 18263635337542320751
20671657 1 18339366390980180053
20671657 53 18412267211731199716
20871998 22 18411415094804745536
21029758 11 18339637850061442833
21267235 1 18410865347148613163
21296965 67 18411135797239284376
21501502 16 18269558406818150677
221490 88 18263369259817742035
2255824 54 18338519767342900860
2297311 6 18198070188316364814
23175994 123 18337393742718554391
23366157 5 18042402598511956580
23402539 116 18198895916451692151
23463225 33 18411983572022335255
23557571 272 18056766429886619198
23559900 14 18340481257078960160
2748010 2 18336540620664420197
3004659 81 18042126475539490822
3071541 12 18266461082204425252
3071541 37 18119253002421883380
3091708 16 9356751044158606520
314173 41 18410299086097166574
335352 9 18338798897594801653
3421961 26 18411980286673092720
350125 39 18409453575020421517
43471831 8 17834391602732467728
4409770 3 17684079184765252628
5104073 3 18411982455315021363
7364860 26 18267866258212338144
81228 2 17981624679620272664
8809292 202 18261115188209041307
9709674 26 18263644146488810875
9981440 41 17617653701606948376

> <PUBCHEM_SHAPE_MULTIPOLES>
351.49
8.07
3.31
0.6
1.04
2.34
0
-5.29
-0.01
-3.39
0
0.01
0.03
0

> <PUBCHEM_SHAPE_SELFOVERLAP>
772.834

> <PUBCHEM_SHAPE_VOLUME>
191.7

> <PUBCHEM_COORDINATE_TYPE>
2
5
10

$$$$
