46866604
  -OEChem-10052115143D

 91 97  0     1  0  0  0  0  0999 V2000
    6.3884   -3.8917   -2.0167 O   0  0  0  0  0  0  0  0  0  0  0  0
   10.5066    3.0557   -0.2752 O   0  0  0  0  0  0  0  0  0  0  0  0
   -8.6673    2.0210   -2.2990 O   0  0  0  0  0  0  0  0  0  0  0  0
   -1.7915    0.5301   -0.8281 O   0  0  0  0  0  0  0  0  0  0  0  0
    6.7066   -2.5162    0.4130 N   0  0  0  0  0  0  0  0  0  0  0  0
    7.2475   -0.2415    0.2394 N   0  0  0  0  0  0  0  0  0  0  0  0
    4.9698   -0.9438    0.5166 N   0  0  0  0  0  0  0  0  0  0  0  0
    5.4925    1.3917    0.3430 N   0  0  0  0  0  0  0  0  0  0  0  0
  -11.0234   -1.4755    0.3808 N   0  0  0  0  0  0  0  0  0  0  0  0
   -9.0966    0.1036   -1.0326 N   0  0  0  0  0  0  0  0  0  0  0  0
   -0.8372    1.6244    1.0051 N   0  0  0  0  0  0  0  0  0  0  0  0
   -3.1167    1.7652    0.6579 N   0  0  0  0  0  0  0  0  0  0  0  0
    5.7453   -3.5839    0.3342 C   0  0  2  0  0  0  0  0  0  0  0  0
    7.8767   -2.9331   -0.3135 C   0  0  1  0  0  0  0  0  0  0  0  0
    6.6455   -4.7825    0.6830 C   0  0  0  0  0  0  0  0  0  0  0  0
    8.0545   -4.3521    0.2551 C   0  0  0  0  0  0  0  0  0  0  0  0
    5.2806   -3.6547   -1.1320 C   0  0  0  0  0  0  0  0  0  0  0  0
    7.4808   -2.9826   -1.8006 C   0  0  0  0  0  0  0  0  0  0  0  0
    6.2874   -1.1685    0.3881 C   0  0  0  0  0  0  0  0  0  0  0  0
    7.7981    2.1240    0.0603 C   0  0  0  0  0  0  0  0  0  0  0  0
    6.7763    1.0159    0.2259 C   0  0  0  0  0  0  0  0  0  0  0  0
    4.6459    0.3589    0.4850 C   0  0  0  0  0  0  0  0  0  0  0  0
    8.8082    2.1667    1.2181 C   0  0  0  0  0  0  0  0  0  0  0  0
    8.5424    2.0377   -1.2818 C   0  0  0  0  0  0  0  0  0  0  0  0
    9.8505    3.2532    0.9768 C   0  0  0  0  0  0  0  0  0  0  0  0
    9.6016    3.1305   -1.3764 C   0  0  0  0  0  0  0  0  0  0  0  0
   -9.7067   -1.2033    0.9752 C   0  0  0  0  0  0  0  0  0  0  0  0
  -11.4538   -0.3445   -0.4541 C   0  0  0  0  0  0  0  0  0  0  0  0
    3.2423    0.6829    0.6181 C   0  0  0  0  0  0  0  0  0  0  0  0
  -12.0112   -1.7488    1.4239 C   0  0  0  0  0  0  0  0  0  0  0  0
   -8.6557   -0.9456   -0.1067 C   0  0  0  0  0  0  0  0  0  0  0  0
  -10.4428   -0.0830   -1.5692 C   0  0  0  0  0  0  0  0  0  0  0  0
  -11.5483   -2.9094    2.3000 C   0  0  0  0  0  0  0  0  0  0  0  0
  -13.3597   -2.0528    0.7791 C   0  0  0  0  0  0  0  0  0  0  0  0
    2.8077    1.4792    1.6778 C   0  0  0  0  0  0  0  0  0  0  0  0
    2.3234    0.1992   -0.3132 C   0  0  0  0  0  0  0  0  0  0  0  0
   -8.3208    1.1789   -1.4722 C   0  0  0  0  0  0  0  0  0  0  0  0
    1.4544    1.7916    1.8063 C   0  0  0  0  0  0  0  0  0  0  0  0
    0.9701    0.5115   -0.1848 C   0  0  0  0  0  0  0  0  0  0  0  0
   -6.9690    1.3311   -0.9177 C   0  0  0  0  0  0  0  0  0  0  0  0
    0.5356    1.3076    0.8749 C   0  0  0  0  0  0  0  0  0  0  0  0
   -5.8851    0.7190   -1.5470 C   0  0  0  0  0  0  0  0  0  0  0  0
   -6.7687    2.0877    0.2369 C   0  0  0  0  0  0  0  0  0  0  0  0
   -4.6011    0.8632   -1.0217 C   0  0  0  0  0  0  0  0  0  0  0  0
   -5.4848    2.2319    0.7623 C   0  0  0  0  0  0  0  0  0  0  0  0
   -4.4010    1.6197    0.1330 C   0  0  0  0  0  0  0  0  0  0  0  0
   -1.8976    1.2315    0.1729 C   0  0  0  0  0  0  0  0  0  0  0  0
    4.9057   -3.4955    1.0315 H   0  0  0  0  0  0  0  0  0  0  0  0
    8.7654   -2.3166   -0.1439 H   0  0  0  0  0  0  0  0  0  0  0  0
    6.6352   -4.9599    1.7654 H   0  0  0  0  0  0  0  0  0  0  0  0
    6.3253   -5.7085    0.1947 H   0  0  0  0  0  0  0  0  0  0  0  0
    8.5015   -5.0439   -0.4662 H   0  0  0  0  0  0  0  0  0  0  0  0
    8.7075   -4.3266    1.1360 H   0  0  0  0  0  0  0  0  0  0  0  0
    4.5811   -4.4871   -1.2622 H   0  0  0  0  0  0  0  0  0  0  0  0
    4.7677   -2.7428   -1.4562 H   0  0  0  0  0  0  0  0  0  0  0  0
    7.1947   -1.9961   -2.1832 H   0  0  0  0  0  0  0  0  0  0  0  0
    8.3229   -3.3397   -2.4023 H   0  0  0  0  0  0  0  0  0  0  0  0
    7.2507    3.0777    0.0693 H   0  0  0  0  0  0  0  0  0  0  0  0
    9.3195    1.1985    1.2957 H   0  0  0  0  0  0  0  0  0  0  0  0
    8.2959    2.3403    2.1714 H   0  0  0  0  0  0  0  0  0  0  0  0
    7.8398    2.1195   -2.1192 H   0  0  0  0  0  0  0  0  0  0  0  0
    9.0354    1.0605   -1.3664 H   0  0  0  0  0  0  0  0  0  0  0  0
    9.3988    4.2519    0.9994 H   0  0  0  0  0  0  0  0  0  0  0  0
   10.6126    3.2176    1.7617 H   0  0  0  0  0  0  0  0  0  0  0  0
   10.1833    3.0052   -2.2951 H   0  0  0  0  0  0  0  0  0  0  0  0
    9.1452    4.1268   -1.4073 H   0  0  0  0  0  0  0  0  0  0  0  0
   -9.3308   -2.0566    1.5475 H   0  0  0  0  0  0  0  0  0  0  0  0
   -9.7563   -0.3387    1.6504 H   0  0  0  0  0  0  0  0  0  0  0  0
  -11.5779    0.5627    0.1519 H   0  0  0  0  0  0  0  0  0  0  0  0
  -12.4023   -0.5433   -0.9614 H   0  0  0  0  0  0  0  0  0  0  0  0
  -12.1419   -0.8737    2.0757 H   0  0  0  0  0  0  0  0  0  0  0  0
   -8.4939   -1.8504   -0.7056 H   0  0  0  0  0  0  0  0  0  0  0  0
   -7.7028   -0.6950    0.3647 H   0  0  0  0  0  0  0  0  0  0  0  0
  -10.7504    0.7920   -2.1512 H   0  0  0  0  0  0  0  0  0  0  0  0
  -10.4002   -0.9354   -2.2587 H   0  0  0  0  0  0  0  0  0  0  0  0
  -12.3687   -3.2564    2.9394 H   0  0  0  0  0  0  0  0  0  0  0  0
  -10.7404   -2.6249    2.9816 H   0  0  0  0  0  0  0  0  0  0  0  0
  -11.2221   -3.7678    1.7015 H   0  0  0  0  0  0  0  0  0  0  0  0
  -14.0506   -2.4735    1.5194 H   0  0  0  0  0  0  0  0  0  0  0  0
  -13.8532   -1.1561    0.3911 H   0  0  0  0  0  0  0  0  0  0  0  0
  -13.2707   -2.7874   -0.0296 H   0  0  0  0  0  0  0  0  0  0  0  0
    3.5091    1.8626    2.4151 H   0  0  0  0  0  0  0  0  0  0  0  0
    2.6459   -0.4206   -1.1468 H   0  0  0  0  0  0  0  0  0  0  0  0
    1.1288    2.4124    2.6370 H   0  0  0  0  0  0  0  0  0  0  0  0
    0.3229    0.0997   -0.9458 H   0  0  0  0  0  0  0  0  0  0  0  0
   -6.0316    0.1271   -2.4470 H   0  0  0  0  0  0  0  0  0  0  0  0
   -7.6067    2.5683    0.7353 H   0  0  0  0  0  0  0  0  0  0  0  0
   -1.0752    2.2087    1.8025 H   0  0  0  0  0  0  0  0  0  0  0  0
   -3.8161    0.3585   -1.5664 H   0  0  0  0  0  0  0  0  0  0  0  0
   -5.3435    2.8243    1.6628 H   0  0  0  0  0  0  0  0  0  0  0  0
   -3.0506    2.3307    1.5006 H   0  0  0  0  0  0  0  0  0  0  0  0
  1 17  1  0  0  0  0
  1 18  1  0  0  0  0
  2 25  1  0  0  0  0
  2 26  1  0  0  0  0
  3 37  2  0  0  0  0
  4 47  2  0  0  0  0
  5 13  1  0  0  0  0
  5 14  1  0  0  0  0
  5 19  1  0  0  0  0
  6 19  1  0  0  0  0
  6 21  2  0  0  0  0
  7 19  2  0  0  0  0
  7 22  1  0  0  0  0
  8 21  1  0  0  0  0
  8 22  2  0  0  0  0
  9 27  1  0  0  0  0
  9 28  1  0  0  0  0
  9 30  1  0  0  0  0
 10 31  1  0  0  0  0
 10 32  1  0  0  0  0
 10 37  1  0  0  0  0
 11 41  1  0  0  0  0
 11 47  1  0  0  0  0
 11 88  1  0  0  0  0
 12 46  1  0  0  0  0
 12 47  1  0  0  0  0
 12 91  1  0  0  0  0
 13 15  1  0  0  0  0
 13 17  1  0  0  0  0
 13 48  1  0  0  0  0
 14 16  1  0  0  0  0
 14 18  1  0  0  0  0
 14 49  1  0  0  0  0
 15 16  1  0  0  0  0
 15 50  1  0  0  0  0
 15 51  1  0  0  0  0
 16 52  1  0  0  0  0
 16 53  1  0  0  0  0
 17 54  1  0  0  0  0
 17 55  1  0  0  0  0
 18 56  1  0  0  0  0
 18 57  1  0  0  0  0
 20 21  1  0  0  0  0
 20 23  1  0  0  0  0
 20 24  1  0  0  0  0
 20 58  1  0  0  0  0
 22 29  1  0  0  0  0
 23 25  1  0  0  0  0
 23 59  1  0  0  0  0
 23 60  1  0  0  0  0
 24 26  1  0  0  0  0
 24 61  1  0  0  0  0
 24 62  1  0  0  0  0
 25 63  1  0  0  0  0
 25 64  1  0  0  0  0
 26 65  1  0  0  0  0
 26 66  1  0  0  0  0
 27 31  1  0  0  0  0
 27 67  1  0  0  0  0
 27 68  1  0  0  0  0
 28 32  1  0  0  0  0
 28 69  1  0  0  0  0
 28 70  1  0  0  0  0
 29 35  2  0  0  0  0
 29 36  1  0  0  0  0
 30 33  1  0  0  0  0
 30 34  1  0  0  0  0
 30 71  1  0  0  0  0
 31 72  1  0  0  0  0
 31 73  1  0  0  0  0
 32 74  1  0  0  0  0
 32 75  1  0  0  0  0
 33 76  1  0  0  0  0
 33 77  1  0  0  0  0
 33 78  1  0  0  0  0
 34 79  1  0  0  0  0
 34 80  1  0  0  0  0
 34 81  1  0  0  0  0
 35 38  1  0  0  0  0
 35 82  1  0  0  0  0
 36 39  2  0  0  0  0
 36 83  1  0  0  0  0
 37 40  1  0  0  0  0
 38 41  2  0  0  0  0
 38 84  1  0  0  0  0
 39 41  1  0  0  0  0
 39 85  1  0  0  0  0
 40 42  2  0  0  0  0
 40 43  1  0  0  0  0
 42 44  1  0  0  0  0
 42 86  1  0  0  0  0
 43 45  2  0  0  0  0
 43 87  1  0  0  0  0
 44 46  2  0  0  0  0
 44 89  1  0  0  0  0
 45 46  1  0  0  0  0
 45 90  1  0  0  0  0
M  END
> <PUBCHEM_COMPOUND_CID>
46866604

> <PUBCHEM_CONFORMER_RMSD>
1.4

> <PUBCHEM_CONFORMER_DIVERSEORDER>
8
56
35
26
38
45
23
7
53
52
16
24
39
20
41
21
44
54
27
42
31
13
50
46
51
10
25
14
5
32
19
30
1
33
34
59
36
43
22
57
28
55
11
6
29
4
9
2
15
40
12
37
47
58
3
18
48
17
49

> <PUBCHEM_MMFF94_PARTIAL_CHARGES>
50
1 -0.56
10 -0.66
11 -0.55
12 -0.55
13 0.37
14 0.37
17 0.28
18 0.28
19 0.72
2 -0.56
20 0.14
21 0.48
22 0.62
25 0.28
26 0.28
27 0.27
28 0.27
3 -0.57
30 0.27
31 0.3
32 0.3
35 -0.15
36 -0.15
37 0.54
38 -0.15
39 -0.15
4 -0.57
40 0.09
41 0.12
42 -0.15
43 -0.15
44 -0.15
45 -0.15
46 0.12
47 0.69
5 -0.84
6 -0.62
7 -0.62
8 -0.62
82 0.15
83 0.15
84 0.15
85 0.15
86 0.15
87 0.15
88 0.37
89 0.15
9 -0.81
90 0.15
91 0.37

> <PUBCHEM_EFFECTIVE_ROTOR_COUNT>
13.6

> <PUBCHEM_PHARMACOPHORE_FEATURES>
15
1 1 acceptor
1 11 donor
1 12 donor
1 2 acceptor
1 3 acceptor
1 4 acceptor
1 9 cation
3 30 33 34 hydrophobe
4 5 6 7 19 cation
6 2 20 23 24 25 26 rings
6 29 35 36 38 39 41 rings
6 40 42 43 44 45 46 rings
6 6 7 8 19 21 22 rings
6 9 10 27 28 31 32 rings
8 1 5 13 14 15 16 17 18 rings

> <PUBCHEM_HEAVY_ATOM_COUNT>
47

> <PUBCHEM_ATOM_DEF_STEREO_COUNT>
0

> <PUBCHEM_ATOM_UDEF_STEREO_COUNT>
2

> <PUBCHEM_BOND_DEF_STEREO_COUNT>
0

> <PUBCHEM_BOND_UDEF_STEREO_COUNT>
0

> <PUBCHEM_ISOTOPIC_ATOM_COUNT>
0

> <PUBCHEM_COMPONENT_COUNT>
1

> <PUBCHEM_CACTVS_TAUTO_COUNT>
23

> <PUBCHEM_CONFORMER_ID>
02CB20AC00000008

> <PUBCHEM_MMFF94_ENERGY>
154.9287

> <PUBCHEM_FEATURE_SELFOVERLAP>
76.173

> <PUBCHEM_SHAPE_FINGERPRINT>
10168742 298 18113341878120016823
12089408 11 18201435844590119169
12522641 33 18408041819855314592
12559415 141 18341058493181057791
131240 100 17968375758122556897
14344974 52 17603581976117898477
15065858 18 18261106349656852797
15392192 104 18410854374250587116
16067689 302 18342740702446524799
16728433 110 18341890844583561521
20105231 36 18413105083802150543
20982279 24 18411424991143028179
212700 22 18334287657416023995
22149856 69 11887669589462007354
45377200 153 18260827129733431067
4874694 18 18334010610597588040
5470011 282 18410006624615179580
9937071 3 18343013372755765395

> <PUBCHEM_SHAPE_MULTIPOLES>
903.91
55.3
5.13
1.67
119.52
6.03
-0.23
17.28
0.09
-16.99
0.01
1.99
0.11
5.69

> <PUBCHEM_SHAPE_SELFOVERLAP>
1956.362

> <PUBCHEM_SHAPE_VOLUME>
488.6

> <PUBCHEM_COORDINATE_TYPE>
2
5
10

$$$$
