49830348
  -OEChem-10062121553D

 68 72  0     1  0  0  0  0  0999 V2000
   -2.7293   -0.9346    1.2517 S   0  0  0  0  0  0  0  0  0  0  0  0
  -10.3520   -0.8344   -0.1764 O   0  0  0  0  0  0  0  0  0  0  0  0
    5.9074   -0.8109   -0.7786 O   0  0  0  0  0  0  0  0  0  0  0  0
   -7.0800    0.2337   -0.5438 N   0  0  0  0  0  0  0  0  0  0  0  0
   -7.0877    0.2582    0.7999 N   0  0  0  0  0  0  0  0  0  0  0  0
   -8.6395   -2.3900   -0.1688 N   0  0  0  0  0  0  0  0  0  0  0  0
   -2.0722    2.8749   -1.0107 N   0  0  0  0  0  0  0  0  0  0  0  0
    0.2533    2.6267   -0.6671 N   0  0  0  0  0  0  0  0  0  0  0  0
    5.2140    0.3428    1.1391 N   0  0  0  0  0  0  0  0  0  0  0  0
    7.4693    0.1212    0.6913 N   0  0  0  0  0  0  0  0  0  0  0  0
   -8.3368   -0.1652   -1.2983 C   0  0  1  0  0  0  0  0  0  0  0  0
   -3.6893    1.2786   -0.1748 C   0  0  0  0  0  0  0  0  0  0  0  0
   -2.6294    0.5392    0.3636 C   0  0  0  0  0  0  0  0  0  0  0  0
   -1.3042    0.9592    0.2190 C   0  0  0  0  0  0  0  0  0  0  0  0
   -5.0508    0.8643   -0.0377 C   0  0  0  0  0  0  0  0  0  0  0  0
   -0.3980    0.0439    0.8517 C   0  0  0  0  0  0  0  0  0  0  0  0
   -5.8837    0.5884   -1.0946 C   0  0  0  0  0  0  0  0  0  0  0  0
   -1.0601    2.1493   -0.4847 C   0  0  0  0  0  0  0  0  0  0  0  0
    1.0406    0.1199    0.9256 C   0  0  0  0  0  0  0  0  0  0  0  0
   -5.8456    0.6441    1.1033 C   0  0  0  0  0  0  0  0  0  0  0  0
   -9.2040   -1.1544   -0.5047 C   0  0  0  0  0  0  0  0  0  0  0  0
   -9.1333    1.0952   -1.6618 C   0  0  0  0  0  0  0  0  0  0  0  0
   -1.0377   -1.0187    1.4446 C   0  0  0  0  0  0  0  0  0  0  0  0
   -3.3351    2.4345   -0.8482 C   0  0  0  0  0  0  0  0  0  0  0  0
    1.8222   -0.4696   -0.0681 C   0  0  0  0  0  0  0  0  0  0  0  0
    1.6502    0.7834    1.9904 C   0  0  0  0  0  0  0  0  0  0  0  0
    3.8227    0.2677    1.0682 C   0  0  0  0  0  0  0  0  0  0  0  0
    3.2132   -0.3958    0.0031 C   0  0  0  0  0  0  0  0  0  0  0  0
    3.0412    0.8572    2.0617 C   0  0  0  0  0  0  0  0  0  0  0  0
   -9.4011   -3.3198    0.6576 C   0  0  0  0  0  0  0  0  0  0  0  0
   -7.2946   -2.8397   -0.5189 C   0  0  0  0  0  0  0  0  0  0  0  0
    6.1746   -0.1829    0.2409 C   0  0  0  0  0  0  0  0  0  0  0  0
    8.7033   -0.2182    0.0883 C   0  0  0  0  0  0  0  0  0  0  0  0
    9.9023    0.1724    0.6848 C   0  0  0  0  0  0  0  0  0  0  0  0
    8.7208   -0.9437   -1.1029 C   0  0  0  0  0  0  0  0  0  0  0  0
   11.1361   -0.8884   -1.1011 C   0  0  0  0  0  0  0  0  0  0  0  0
   11.1186   -0.1627    0.0901 C   0  0  0  0  0  0  0  0  0  0  0  0
    9.9372   -1.2787   -1.6976 C   0  0  0  0  0  0  0  0  0  0  0  0
   12.4372   -1.2471   -1.7362 C   0  0  0  0  0  0  0  0  0  0  0  0
   -7.9881   -0.6469   -2.2186 H   0  0  0  0  0  0  0  0  0  0  0  0
   -5.7353    0.6114   -2.1660 H   0  0  0  0  0  0  0  0  0  0  0  0
   -5.5783    0.7510    2.1453 H   0  0  0  0  0  0  0  0  0  0  0  0
   -8.5252    1.7814   -2.2613 H   0  0  0  0  0  0  0  0  0  0  0  0
  -10.0259    0.8395   -2.2425 H   0  0  0  0  0  0  0  0  0  0  0  0
   -9.4557    1.6366   -0.7651 H   0  0  0  0  0  0  0  0  0  0  0  0
   -0.6003   -1.8476    1.9854 H   0  0  0  0  0  0  0  0  0  0  0  0
   -4.0878    3.0769   -1.2980 H   0  0  0  0  0  0  0  0  0  0  0  0
    1.3614   -0.9892   -0.9052 H   0  0  0  0  0  0  0  0  0  0  0  0
    1.0555    1.2494    2.7725 H   0  0  0  0  0  0  0  0  0  0  0  0
    3.7468   -0.8765   -0.8043 H   0  0  0  0  0  0  0  0  0  0  0  0
    3.5027    1.3780    2.8969 H   0  0  0  0  0  0  0  0  0  0  0  0
    0.3741    3.4891   -1.1824 H   0  0  0  0  0  0  0  0  0  0  0  0
    1.0675    2.1549   -0.3130 H   0  0  0  0  0  0  0  0  0  0  0  0
   -9.5313   -4.2559    0.1067 H   0  0  0  0  0  0  0  0  0  0  0  0
  -10.3858   -2.9260    0.9205 H   0  0  0  0  0  0  0  0  0  0  0  0
   -8.8405   -3.5109    1.5775 H   0  0  0  0  0  0  0  0  0  0  0  0
   -7.3319   -3.8993   -0.7905 H   0  0  0  0  0  0  0  0  0  0  0  0
   -6.8787   -2.2948   -1.3655 H   0  0  0  0  0  0  0  0  0  0  0  0
   -6.6476   -2.7155    0.3541 H   0  0  0  0  0  0  0  0  0  0  0  0
    5.5840    0.8424    1.9439 H   0  0  0  0  0  0  0  0  0  0  0  0
    7.5389    0.6504    1.5569 H   0  0  0  0  0  0  0  0  0  0  0  0
    9.9026    0.7377    1.6133 H   0  0  0  0  0  0  0  0  0  0  0  0
    7.8381   -1.2827   -1.6257 H   0  0  0  0  0  0  0  0  0  0  0  0
   12.0461    0.1456    0.5654 H   0  0  0  0  0  0  0  0  0  0  0  0
    9.9394   -1.8460   -2.6247 H   0  0  0  0  0  0  0  0  0  0  0  0
   12.7848   -2.2143   -1.3599 H   0  0  0  0  0  0  0  0  0  0  0  0
   12.3416   -1.3080   -2.8257 H   0  0  0  0  0  0  0  0  0  0  0  0
   13.2019   -0.4922   -1.5238 H   0  0  0  0  0  0  0  0  0  0  0  0
  1 13  1  0  0  0  0
  1 23  1  0  0  0  0
  2 21  2  0  0  0  0
  3 32  2  0  0  0  0
  4  5  1  0  0  0  0
  4 11  1  0  0  0  0
  4 17  1  0  0  0  0
  5 20  2  0  0  0  0
  6 21  1  0  0  0  0
  6 30  1  0  0  0  0
  6 31  1  0  0  0  0
  7 18  2  0  0  0  0
  7 24  1  0  0  0  0
  8 18  1  0  0  0  0
  8 52  1  0  0  0  0
  8 53  1  0  0  0  0
  9 27  1  0  0  0  0
  9 32  1  0  0  0  0
  9 60  1  0  0  0  0
 10 32  1  0  0  0  0
 10 33  1  0  0  0  0
 10 61  1  0  0  0  0
 11 21  1  0  0  0  0
 11 22  1  0  0  0  0
 11 40  1  0  0  0  0
 12 13  1  0  0  0  0
 12 15  1  0  0  0  0
 12 24  2  0  0  0  0
 13 14  2  0  0  0  0
 14 16  1  0  0  0  0
 14 18  1  0  0  0  0
 15 17  2  0  0  0  0
 15 20  1  0  0  0  0
 16 19  1  0  0  0  0
 16 23  2  0  0  0  0
 17 41  1  0  0  0  0
 19 25  2  0  0  0  0
 19 26  1  0  0  0  0
 20 42  1  0  0  0  0
 22 43  1  0  0  0  0
 22 44  1  0  0  0  0
 22 45  1  0  0  0  0
 23 46  1  0  0  0  0
 24 47  1  0  0  0  0
 25 28  1  0  0  0  0
 25 48  1  0  0  0  0
 26 29  2  0  0  0  0
 26 49  1  0  0  0  0
 27 28  2  0  0  0  0
 27 29  1  0  0  0  0
 28 50  1  0  0  0  0
 29 51  1  0  0  0  0
 30 54  1  0  0  0  0
 30 55  1  0  0  0  0
 30 56  1  0  0  0  0
 31 57  1  0  0  0  0
 31 58  1  0  0  0  0
 31 59  1  0  0  0  0
 33 34  2  0  0  0  0
 33 35  1  0  0  0  0
 34 37  1  0  0  0  0
 34 62  1  0  0  0  0
 35 38  2  0  0  0  0
 35 63  1  0  0  0  0
 36 37  2  0  0  0  0
 36 38  1  0  0  0  0
 36 39  1  0  0  0  0
 37 64  1  0  0  0  0
 38 65  1  0  0  0  0
 39 66  1  0  0  0  0
 39 67  1  0  0  0  0
 39 68  1  0  0  0  0
M  END
> <PUBCHEM_COMPOUND_CID>
49830348

> <PUBCHEM_CONFORMER_RMSD>
1

> <PUBCHEM_CONFORMER_DIVERSEORDER>
1
85
14
64
95
79
99
78
75
4
98
73
60
81
76
56
40
104
93
77
61
89
21
57
113
35
74
108
24
105
82
80
100
112
88
96
110
67
106
18
91
53
90
59
41
84
58
47
107
8
111
20
28
103
11
101
62
17
83
39
102
87
9
50
109
6
22
72
29
38
86
16
42
97
36
65
34
70
32
15
26
63
19
43
7
71
25
30
92
12
55
48
49
94
13
44
52
66
46
68
54
5
23
31
45
27
51
3
69
2
10
37
33

> <PUBCHEM_MMFF94_PARTIAL_CHARGES>
53
1 -0.08
10 -0.55
11 0.32
12 0.05
13 0.04
15 -0.05
16 -0.05
17 -0.3
18 0.41
19 0.05
2 -0.57
20 0.14
21 0.57
23 -0.11
24 0.16
25 -0.15
26 -0.15
27 0.12
28 -0.15
29 -0.15
3 -0.57
30 0.3
31 0.3
32 0.69
33 0.12
34 -0.15
35 -0.15
36 -0.14
37 -0.15
38 -0.15
39 0.14
4 0.31
41 0.15
42 0.15
46 0.15
47 0.15
48 0.15
49 0.15
5 -0.71
50 0.15
51 0.15
52 0.4
53 0.4
6 -0.66
60 0.37
61 0.37
62 0.15
63 0.15
64 0.15
65 0.15
7 -0.62
8 -0.9
9 -0.55

> <PUBCHEM_EFFECTIVE_ROTOR_COUNT>
9

> <PUBCHEM_PHARMACOPHORE_FEATURES>
12
1 10 donor
1 2 acceptor
1 3 acceptor
1 5 acceptor
1 8 donor
1 9 donor
3 7 8 18 cation
5 1 13 14 16 23 rings
5 4 5 15 17 20 rings
6 19 25 26 27 28 29 rings
6 33 34 35 36 37 38 rings
6 7 12 13 14 18 24 rings

> <PUBCHEM_HEAVY_ATOM_COUNT>
39

> <PUBCHEM_ATOM_DEF_STEREO_COUNT>
0

> <PUBCHEM_ATOM_UDEF_STEREO_COUNT>
1

> <PUBCHEM_BOND_DEF_STEREO_COUNT>
0

> <PUBCHEM_BOND_UDEF_STEREO_COUNT>
0

> <PUBCHEM_ISOTOPIC_ATOM_COUNT>
0

> <PUBCHEM_COMPONENT_COUNT>
1

> <PUBCHEM_CACTVS_TAUTO_COUNT>
6

> <PUBCHEM_CONFORMER_ID>
02F859CC00000001

> <PUBCHEM_MMFF94_ENERGY>
120.7277

> <PUBCHEM_FEATURE_SELFOVERLAP>
61.011

> <PUBCHEM_SHAPE_FINGERPRINT>
10076449 9 18343302548450679688
10168742 298 18341901779786088390
10674148 151 10447926170198104806
11408170 108 15338849625778925742
11456790 92 11023821799221210803
12013929 2 18059850642018976689
12089408 11 17603864460733138376
12522641 33 16443064985589181194
12559415 141 17131843071126142158
12664476 115 16515683347599733652
13553643 46 12107788497286479726
14118638 360 18115306662559325784
14202775 3 17846786191929897894
14344974 52 18261672658311629008
15061470 23 14056723457472593430
15065858 18 18130785647337173456
15247644 1 17846498136314275142
15461852 350 18260546723121700087
15510794 2 18060703896984929706
15538507 75 10447936036898845228
16728433 110 17060050468190971128
16992752 21 18187361009212276285
1754911 235 17022902354342018830
1818759 1 16558750101420878758
20105231 36 17346876758359534078
20580484 106 10592042449163823319
21362267 2 14057007182954756486
21362267 20 16271916151379588958
21362267 313 9222965755526100532
21792961 116 16271924892529201873
232437 2 16773796987806684014
23576562 1 17241331421191356287
249057 3 18186525419440717912
306946 40 11963388557299803414
335352 9 17676206875121027376
4017518 198 18272929423818408871
4353968 344 18113897152824325909
44389302 135 13830132776778886676
4516262 110 14996002138951499632
45377200 153 18343016731014678107
4760202 170 14707215444218155022
5028188 123 18411140203902642957
54039377 194 16917347026447284696
6126387 218 10737289047932537944
636775 8 18409167723308051359
6673363 416 18259704480051610621
6691757 9 17603879883253615752
9937071 3 17203611484883751134

> <PUBCHEM_SHAPE_MULTIPOLES>
759.85
45.25
2.29
1.58
69.93
0.47
-0.12
27.84
20.08
-6.25
0.53
1.13
-0.08
3.15

> <PUBCHEM_SHAPE_SELFOVERLAP>
1652.047

> <PUBCHEM_SHAPE_VOLUME>
419.5

> <PUBCHEM_COORDINATE_TYPE>
2
5
10

$$$$
