49830737
  -OEChem-10052120443D

 55 58  0     1  0  0  0  0  0999 V2000
    5.7262    2.8562    0.9316 Cl  0  0  0  0  0  0  0  0  0  0  0  0
   -9.7097   -0.2401    0.7335 O   0  0  0  0  0  0  0  0  0  0  0  0
   -7.9376   -1.2898   -0.2432 O   0  0  0  0  0  0  0  0  0  0  0  0
    0.7564   -2.3317    0.2416 O   0  0  0  0  0  0  0  0  0  0  0  0
    7.7700    0.7128    0.4200 O   0  0  0  0  0  0  0  0  0  0  0  0
   -5.0765   -0.0144   -0.5322 N   0  0  0  0  0  0  0  0  0  0  0  0
    1.4337   -0.2075    0.0284 N   0  0  0  0  0  0  0  0  0  0  0  0
    2.1518   -2.3543    0.3600 N   0  0  0  0  0  0  0  0  0  0  0  0
   -5.6279    1.3065   -0.7425 C   0  0  1  0  0  0  0  0  0  0  0  0
   -7.9588    1.1183   -0.0438 C   0  0  2  0  0  0  0  0  0  0  0  0
   -7.0543    1.2148   -1.2783 C   0  0  0  0  0  0  0  0  0  0  0  0
   -5.7931    2.0445    0.5784 C   0  0  0  0  0  0  0  0  0  0  0  0
   -7.0960    1.5042    1.1608 C   0  0  0  0  0  0  0  0  0  0  0  0
   -8.5004   -0.2684    0.1217 C   0  0  0  0  0  0  0  0  0  0  0  0
   -3.7232   -0.2650   -0.3899 C   0  0  0  0  0  0  0  0  0  0  0  0
   -2.8095    0.7875   -0.4468 C   0  0  0  0  0  0  0  0  0  0  0  0
   -3.2728   -1.5697   -0.1889 C   0  0  0  0  0  0  0  0  0  0  0  0
   -1.4454    0.5351   -0.3023 C   0  0  0  0  0  0  0  0  0  0  0  0
   -1.9086   -1.8220   -0.0444 C   0  0  0  0  0  0  0  0  0  0  0  0
   -0.9948   -0.7695   -0.1011 C   0  0  0  0  0  0  0  0  0  0  0  0
    0.4160   -1.0305    0.0481 C   0  0  0  0  0  0  0  0  0  0  0  0
    2.4769   -1.0652    0.2237 C   0  0  0  0  0  0  0  0  0  0  0  0
    3.8332   -0.6008    0.2772 C   0  0  0  0  0  0  0  0  0  0  0  0
    8.5425    0.5394   -0.7660 C   0  0  0  0  0  0  0  0  0  0  0  0
    6.4715    0.3000    0.3782 C   0  0  0  0  0  0  0  0  0  0  0  0
    4.1022    0.7413    0.5453 C   0  0  0  0  0  0  0  0  0  0  0  0
    4.8835   -1.4925    0.0593 C   0  0  0  0  0  0  0  0  0  0  0  0
    5.4213    1.1918    0.5959 C   0  0  0  0  0  0  0  0  0  0  0  0
    6.2026   -1.0422    0.1098 C   0  0  0  0  0  0  0  0  0  0  0  0
    9.0093    1.8993   -1.2626 C   0  0  0  0  0  0  0  0  0  0  0  0
    9.7113   -0.3882   -0.4715 C   0  0  0  0  0  0  0  0  0  0  0  0
   -5.0323    1.8728   -1.4666 H   0  0  0  0  0  0  0  0  0  0  0  0
   -8.8009    1.8097   -0.1704 H   0  0  0  0  0  0  0  0  0  0  0  0
   -7.2912    2.1490   -1.8049 H   0  0  0  0  0  0  0  0  0  0  0  0
   -7.1890    0.4005   -1.9986 H   0  0  0  0  0  0  0  0  0  0  0  0
   -4.9591    1.9164    1.2749 H   0  0  0  0  0  0  0  0  0  0  0  0
   -5.9038    3.1190    0.3862 H   0  0  0  0  0  0  0  0  0  0  0  0
   -7.5895    2.2588    1.7825 H   0  0  0  0  0  0  0  0  0  0  0  0
   -6.8888    0.6408    1.8048 H   0  0  0  0  0  0  0  0  0  0  0  0
   -5.7136   -0.7956   -0.4213 H   0  0  0  0  0  0  0  0  0  0  0  0
  -10.0819   -1.1401    0.8508 H   0  0  0  0  0  0  0  0  0  0  0  0
   -3.1049    1.8214   -0.5914 H   0  0  0  0  0  0  0  0  0  0  0  0
   -3.9744   -2.3988   -0.1425 H   0  0  0  0  0  0  0  0  0  0  0  0
   -0.7504    1.3703   -0.3477 H   0  0  0  0  0  0  0  0  0  0  0  0
   -1.5958   -2.8514    0.1107 H   0  0  0  0  0  0  0  0  0  0  0  0
    7.9435    0.0907   -1.5703 H   0  0  0  0  0  0  0  0  0  0  0  0
    3.2913    1.4454    0.7216 H   0  0  0  0  0  0  0  0  0  0  0  0
    4.7082   -2.5437   -0.1564 H   0  0  0  0  0  0  0  0  0  0  0  0
    7.0057   -1.7549   -0.0530 H   0  0  0  0  0  0  0  0  0  0  0  0
    8.1503    2.5420   -1.4828 H   0  0  0  0  0  0  0  0  0  0  0  0
    9.6159    1.8070   -2.1686 H   0  0  0  0  0  0  0  0  0  0  0  0
    9.5990    2.4140   -0.4960 H   0  0  0  0  0  0  0  0  0  0  0  0
   10.3417    0.0217    0.3255 H   0  0  0  0  0  0  0  0  0  0  0  0
   10.3303   -0.5422   -1.3608 H   0  0  0  0  0  0  0  0  0  0  0  0
    9.3600   -1.3636   -0.1208 H   0  0  0  0  0  0  0  0  0  0  0  0
  1 28  1  0  0  0  0
  2 14  1  0  0  0  0
  2 41  1  0  0  0  0
  3 14  2  0  0  0  0
  4  8  1  0  0  0  0
  4 21  1  0  0  0  0
  5 24  1  0  0  0  0
  5 25  1  0  0  0  0
  6  9  1  0  0  0  0
  6 15  1  0  0  0  0
  6 40  1  0  0  0  0
  7 21  2  0  0  0  0
  7 22  1  0  0  0  0
  8 22  2  0  0  0  0
  9 11  1  0  0  0  0
  9 12  1  0  0  0  0
  9 32  1  0  0  0  0
 10 11  1  0  0  0  0
 10 13  1  0  0  0  0
 10 14  1  0  0  0  0
 10 33  1  0  0  0  0
 11 34  1  0  0  0  0
 11 35  1  0  0  0  0
 12 13  1  0  0  0  0
 12 36  1  0  0  0  0
 12 37  1  0  0  0  0
 13 38  1  0  0  0  0
 13 39  1  0  0  0  0
 15 16  2  0  0  0  0
 15 17  1  0  0  0  0
 16 18  1  0  0  0  0
 16 42  1  0  0  0  0
 17 19  2  0  0  0  0
 17 43  1  0  0  0  0
 18 20  2  0  0  0  0
 18 44  1  0  0  0  0
 19 20  1  0  0  0  0
 19 45  1  0  0  0  0
 20 21  1  0  0  0  0
 22 23  1  0  0  0  0
 23 26  2  0  0  0  0
 23 27  1  0  0  0  0
 24 30  1  0  0  0  0
 24 31  1  0  0  0  0
 24 46  1  0  0  0  0
 25 28  2  0  0  0  0
 25 29  1  0  0  0  0
 26 28  1  0  0  0  0
 26 47  1  0  0  0  0
 27 29  2  0  0  0  0
 27 48  1  0  0  0  0
 29 49  1  0  0  0  0
 30 50  1  0  0  0  0
 30 51  1  0  0  0  0
 30 52  1  0  0  0  0
 31 53  1  0  0  0  0
 31 54  1  0  0  0  0
 31 55  1  0  0  0  0
M  END
> <PUBCHEM_COMPOUND_CID>
49830737

> <PUBCHEM_CONFORMER_RMSD>
1

> <PUBCHEM_CONFORMER_DIVERSEORDER>
1
48
39
43
31
19
49
25
6
22
3
50
18
33
26
52
24
21
20
51
27
34
46
2
41
15
13
37
44
30
35
53
45
4
38
32
17
36
16
47
10
12
5
29
28
42
7
11
14
8
9
23
40

> <PUBCHEM_MMFF94_PARTIAL_CHARGES>
35
1 -0.18
10 0.06
14 0.66
15 0.1
16 -0.15
17 -0.15
18 -0.15
19 -0.15
2 -0.65
20 0.05
21 0.43
22 0.46
23 0.05
24 0.28
25 0.08
26 -0.15
27 -0.15
28 0.18
29 -0.15
3 -0.57
4 -0.02
40 0.4
41 0.5
42 0.15
43 0.15
44 0.15
45 0.15
47 0.15
48 0.15
49 0.15
5 -0.36
6 -0.87
7 -0.57
8 -0.41
9 0.37

> <PUBCHEM_EFFECTIVE_ROTOR_COUNT>
8

> <PUBCHEM_PHARMACOPHORE_FEATURES>
12
1 2 acceptor
1 3 acceptor
1 5 acceptor
1 6 cation
1 6 donor
3 2 3 14 anion
3 24 30 31 hydrophobe
3 7 8 22 cation
5 4 7 8 21 22 rings
5 9 10 11 12 13 rings
6 15 16 17 18 19 20 rings
6 23 25 26 27 28 29 rings

> <PUBCHEM_HEAVY_ATOM_COUNT>
31

> <PUBCHEM_ATOM_DEF_STEREO_COUNT>
0

> <PUBCHEM_ATOM_UDEF_STEREO_COUNT>
2

> <PUBCHEM_BOND_DEF_STEREO_COUNT>
0

> <PUBCHEM_BOND_UDEF_STEREO_COUNT>
0

> <PUBCHEM_ISOTOPIC_ATOM_COUNT>
0

> <PUBCHEM_COMPONENT_COUNT>
1

> <PUBCHEM_CACTVS_TAUTO_COUNT>
4

> <PUBCHEM_CONFORMER_ID>
02F85B5100000001

> <PUBCHEM_MMFF94_ENERGY>
84.7151

> <PUBCHEM_FEATURE_SELFOVERLAP>
60.951

> <PUBCHEM_SHAPE_FINGERPRINT>
10 15 17822009800296497273
10162869 55 16660647384000354543
10369192 42 18060414699746406621
10625338 86 16877937226524540901
106641 1 17967536770810217443
10674148 151 11384115241826608799
11315181 36 18412543186136679401
11719270 70 12179843883979709881
11828042 206 12823295684956551226
12202916 173 9223230762522785224
12664476 115 18334009497990490132
14251764 18 18408600358202161127
14251764 46 17312822679987097339
14394314 77 18271249305742962201
14428016 248 18113903779599842276
14428016 86 18411982442883942062
14849402 71 18272369806944037193
14856354 85 16343409671390483605
14933364 13 18342173358656488043
15064981 194 18269003153324752606
15183329 4 15482669070221356987
15392192 104 16370725933448209538
15461852 350 18060135479290162903
15510794 2 18261116257756508042
1577012 14 18408595968593013046
15840311 113 17603873321741137988
1754911 235 18272645741180379101
18603816 31 12973896948686732505
18608769 82 18411416237841273715
19611394 137 18188780573623693259
20105231 36 13398625083429734005
2026 5 10807670973708452836
20505436 4 18261104175945277138
20721686 124 17988646273262605278
21033648 29 18339910632751977000
21585482 111 18265331712170405077
21792961 116 17275109418185407586
22224240 67 17385723582168935987
232437 2 18407760326928815822
23576562 1 17345173687746891573
24771293 8 18408608029061582293
249057 25 11747224494254967879
249057 3 16845286168228631494
2835820 33 17968383442108946667
3092352 35 18413106160557541038
335352 9 18412260648889374381
3711267 37 18260557705775985604
395649 100 18040717017771158499
3991529 128 17603597339658580444
4073 2 18186523211063442754
504579 68 16343985810286175918
5470011 282 13758066433602126952
5758199 1 18334575728628921587
59521270 166 12031794647747223001
59682541 35 17458348545845045825
6126387 218 10809340044969316775
67123 10 18333732416237484175
9962374 69 8141789565620325624

> <PUBCHEM_SHAPE_MULTIPOLES>
601.41
33.99
2.27
0.92
1.07
0.29
0.08
13.42
2.79
-1.17
-0.3
-0.01
0.39
-0.23

> <PUBCHEM_SHAPE_SELFOVERLAP>
1294.392

> <PUBCHEM_SHAPE_VOLUME>
333.4

> <PUBCHEM_COORDINATE_TYPE>
2
5
10

$$$$
