25167280
  -OEChem-10052115143D

 27 30  0     0  0  0  0  0  0999 V2000
   -2.6894   -0.7013    0.1928 N   0  0  0  0  0  0  0  0  0  0  0  0
   -1.5477    1.1438   -0.3037 N   0  0  0  0  0  0  0  0  0  0  0  0
    4.8407    0.4019    0.0835 N   0  0  0  0  0  0  0  0  0  0  0  0
    5.2285   -0.8501   -0.2118 N   0  0  0  0  0  0  0  0  0  0  0  0
   -3.9745    1.2105   -0.4446 N   0  0  0  0  0  0  0  0  0  0  0  0
    0.7449    0.2778    0.0699 C   0  0  0  0  0  0  0  0  0  0  0  0
   -0.6849    0.1363    0.0413 C   0  0  0  0  0  0  0  0  0  0  0  0
    2.9472   -0.6765   -0.1622 C   0  0  0  0  0  0  0  0  0  0  0  0
    3.4834    0.5729    0.1288 C   0  0  0  0  0  0  0  0  0  0  0  0
    1.5518   -0.8360   -0.1943 C   0  0  0  0  0  0  0  0  0  0  0  0
   -1.3660   -1.0147    0.3523 C   0  0  0  0  0  0  0  0  0  0  0  0
    1.3098    1.5213    0.3594 C   0  0  0  0  0  0  0  0  0  0  0  0
   -2.7603    0.6284   -0.2093 C   0  0  0  0  0  0  0  0  0  0  0  0
    2.6971    1.6959    0.3951 C   0  0  0  0  0  0  0  0  0  0  0  0
    4.0739   -1.5031   -0.3605 C   0  0  0  0  0  0  0  0  0  0  0  0
   -3.8127   -1.4910    0.3742 C   0  0  0  0  0  0  0  0  0  0  0  0
   -5.0253   -0.9703    0.1582 C   0  0  0  0  0  0  0  0  0  0  0  0
   -5.0165    0.4541   -0.2691 C   0  0  0  0  0  0  0  0  0  0  0  0
    1.1355   -1.8101   -0.4338 H   0  0  0  0  0  0  0  0  0  0  0  0
   -1.0496   -1.9996    0.6704 H   0  0  0  0  0  0  0  0  0  0  0  0
    0.6804    2.3844    0.5684 H   0  0  0  0  0  0  0  0  0  0  0  0
    3.1379    2.6606    0.6207 H   0  0  0  0  0  0  0  0  0  0  0  0
    4.0997   -2.5552   -0.6074 H   0  0  0  0  0  0  0  0  0  0  0  0
   -3.6665   -2.5171    0.6892 H   0  0  0  0  0  0  0  0  0  0  0  0
    5.5573    1.0987    0.2441 H   0  0  0  0  0  0  0  0  0  0  0  0
   -5.9544   -1.5084    0.2737 H   0  0  0  0  0  0  0  0  0  0  0  0
   -6.0145    0.8869   -0.4487 H   0  0  0  0  0  0  0  0  0  0  0  0
  1 11  1  0  0  0  0
  1 13  1  0  0  0  0
  1 16  1  0  0  0  0
  2  7  1  0  0  0  0
  2 13  2  0  0  0  0
  3  4  1  0  0  0  0
  3  9  1  0  0  0  0
  3 25  1  0  0  0  0
  4 15  2  0  0  0  0
  5 13  1  0  0  0  0
  5 18  2  0  0  0  0
  6  7  1  0  0  0  0
  6 10  2  0  0  0  0
  6 12  1  0  0  0  0
  7 11  2  0  0  0  0
  8  9  2  0  0  0  0
  8 10  1  0  0  0  0
  8 15  1  0  0  0  0
  9 14  1  0  0  0  0
 10 19  1  0  0  0  0
 11 20  1  0  0  0  0
 12 14  2  0  0  0  0
 12 21  1  0  0  0  0
 14 22  1  0  0  0  0
 15 23  1  0  0  0  0
 16 17  2  0  0  0  0
 16 24  1  0  0  0  0
 17 18  1  0  0  0  0
 17 26  1  0  0  0  0
 18 27  1  0  0  0  0
M  END
> <PUBCHEM_COMPOUND_CID>
25167280

> <PUBCHEM_CONFORMER_RMSD>
0.6

> <PUBCHEM_CONFORMER_DIVERSEORDER>
1
3
2

> <PUBCHEM_MMFF94_PARTIAL_CHARGES>
26
1 0.33
10 -0.15
11 -0.3
12 -0.15
13 0.31
14 -0.15
15 0.14
16 -0.18
17 -0.14
18 0.38
19 0.15
2 -0.57
20 0.15
21 0.15
22 0.15
23 0.15
24 0.15
25 0.27
26 0.15
27 0.06
3 0.3
4 -0.71
5 -0.58
6 0.05
7 0.17
9 -0.15

> <PUBCHEM_EFFECTIVE_ROTOR_COUNT>
1

> <PUBCHEM_PHARMACOPHORE_FEATURES>
8
1 3 donor
1 4 acceptor
1 5 acceptor
4 1 2 5 13 cation
5 1 2 7 11 13 rings
5 3 4 8 9 15 rings
6 1 5 13 16 17 18 rings
6 6 8 9 10 12 14 rings

> <PUBCHEM_HEAVY_ATOM_COUNT>
18

> <PUBCHEM_ATOM_DEF_STEREO_COUNT>
0

> <PUBCHEM_ATOM_UDEF_STEREO_COUNT>
0

> <PUBCHEM_BOND_DEF_STEREO_COUNT>
0

> <PUBCHEM_BOND_UDEF_STEREO_COUNT>
0

> <PUBCHEM_ISOTOPIC_ATOM_COUNT>
0

> <PUBCHEM_COMPONENT_COUNT>
1

> <PUBCHEM_CACTVS_TAUTO_COUNT>
2

> <PUBCHEM_CONFORMER_ID>
018005B000000001

> <PUBCHEM_MMFF94_ENERGY>
38.0569

> <PUBCHEM_FEATURE_SELFOVERLAP>
40.822

> <PUBCHEM_SHAPE_FINGERPRINT>
11128504 68 16370733642492473206
11471102 20 18342455946050950760
12032990 46 18410857667741514377
12107183 9 17691408507795305371
12236239 1 16343703235502288981
12403259 415 18334569149050370941
12507560 40 18340764931110665625
13167823 11 18341610447189363711
13288520 33 18410295800420486615
13533116 47 13398363334483608812
13675066 3 18272082829169331176
14252887 29 17632584821010152062
14341114 176 18412269449382839217
14386348 63 18411140233719058974
14866123 147 17335067758827633610
15196674 1 18410293626871525184
15242439 84 18335417959109969789
15536298 74 18412261769902179705
15788980 27 18060697295034269741
15961568 22 17313948661852559692
17804303 29 18408888442732613757
17834072 33 18342176704056255612
17844677 252 18410863165474103313
18186145 218 17967805063878214277
19141452 34 18343022237663346143
200 152 17918272052262145963
20374829 77 18334010579651952314
20645477 70 18271808999667197070
21065198 57 18411418444747400097
21065201 7 18040426707397048361
21267235 1 18411427214791121555
221357 26 18412257329375727925
221490 88 18264776630263688858
2215653 11 18412539890846886703
23175994 123 17847064380591494753
23402539 116 18411694387953816375
23402655 69 18341892991370039124
23557571 272 18113899325497255853
23559900 14 18410288133666622888
239999 70 18413674600243713438
26918003 58 18272932725951043347
2871803 45 18260825994827836010
3004659 81 18114747036884639538
3268164 11 16950271902288477055
351380 180 18411698794236963807
3545911 37 18411138038927317761
42 15 18410576192769916061
4214541 1 18410293592939308073
465052 167 18202289095730486998
474 4 15503517021986288716
4921388 177 16371019541380535627
4990 188 18335702728136802826
5104073 3 18411699897964386569
5281201 14 18334296486977104852
542803 24 14345793838146729495
633830 44 17749384914177575171
69090 78 18341890827028535111
7495541 125 18408887364706410904
77779 3 18410293631377612497
9709674 26 18263364866118965251

> <PUBCHEM_SHAPE_MULTIPOLES>
345.53
11.44
1.6
0.66
1.71
0.1
-0.01
-2.2
0.58
-0.29
-0.06
0.06
0
0.78

> <PUBCHEM_SHAPE_SELFOVERLAP>
791.575

> <PUBCHEM_SHAPE_VOLUME>
178.5

> <PUBCHEM_COORDINATE_TYPE>
2
5
10

$$$$
