49830655
  -OEChem-10052115183D

 71 74  0     0  0  0  0  0  0999 V2000
   -0.1600   -3.1407   -0.3341 O   0  0  0  0  0  0  0  0  0  0  0  0
    0.3748    4.8362    1.3936 O   0  0  0  0  0  0  0  0  0  0  0  0
   -1.5117    3.1957   -2.3008 O   0  0  0  0  0  0  0  0  0  0  0  0
   -1.9262    0.4615   -2.5936 O   0  0  0  0  0  0  0  0  0  0  0  0
    3.0962   -0.3719    0.4463 N   0  0  0  0  0  0  0  0  0  0  0  0
    4.3307   -0.7132    0.0392 N   0  0  0  0  0  0  0  0  0  0  0  0
    0.7750   -1.1614    0.4882 N   0  0  0  0  0  0  0  0  0  0  0  0
   -1.4863   -1.5334    0.7341 N   0  0  0  0  0  0  0  0  0  0  0  0
    0.7572    3.9866   -0.7298 N   0  0  0  0  0  0  0  0  0  0  0  0
    5.2878   -2.6277   -1.1120 C   0  0  0  0  0  0  0  0  0  0  0  0
    4.1429   -1.9061   -0.5313 C   0  0  0  0  0  0  0  0  0  0  0  0
    5.0922   -2.8984   -2.6431 C   0  0  0  0  0  0  0  0  0  0  0  0
    5.5086   -4.0207   -0.4288 C   0  0  0  0  0  0  0  0  0  0  0  0
    6.6821   -1.9069   -1.0089 C   0  0  0  0  0  0  0  0  0  0  0  0
    2.7990   -2.3233   -0.4890 C   0  0  0  0  0  0  0  0  0  0  0  0
    2.1427   -1.3025    0.1542 C   0  0  0  0  0  0  0  0  0  0  0  0
    2.8986    0.8437    1.1036 C   0  0  0  0  0  0  0  0  0  0  0  0
    2.0341    1.7960    0.5637 C   0  0  0  0  0  0  0  0  0  0  0  0
    3.5646    1.1056    2.3010 C   0  0  0  0  0  0  0  0  0  0  0  0
    1.8358    3.0103    1.2210 C   0  0  0  0  0  0  0  0  0  0  0  0
   -0.2737   -2.0598    0.2348 C   0  0  0  0  0  0  0  0  0  0  0  0
    3.3661    2.3198    2.9584 C   0  0  0  0  0  0  0  0  0  0  0  0
    2.5018    3.2722    2.4183 C   0  0  0  0  0  0  0  0  0  0  0  0
   -2.7654   -2.1019    0.6919 C   0  0  0  0  0  0  0  0  0  0  0  0
   -3.9249   -1.3116    0.6360 C   0  0  0  0  0  0  0  0  0  0  0  0
    0.9351    4.0041    0.6585 C   0  0  0  0  0  0  0  0  0  0  0  0
   -5.1912   -1.9424    0.5953 C   0  0  0  0  0  0  0  0  0  0  0  0
   -2.8529   -3.4942    0.7074 C   0  0  0  0  0  0  0  0  0  0  0  0
   -0.0853    4.9224   -1.4391 C   0  0  0  0  0  0  0  0  0  0  0  0
   -3.8556    0.0910    0.6196 C   0  0  0  0  0  0  0  0  0  0  0  0
   -5.2605   -3.3450    0.6117 C   0  0  0  0  0  0  0  0  0  0  0  0
   -4.0981   -4.1146    0.6674 C   0  0  0  0  0  0  0  0  0  0  0  0
   -6.3507   -1.1520    0.5395 C   0  0  0  0  0  0  0  0  0  0  0  0
   -1.5088    4.4098   -1.5611 C   0  0  0  0  0  0  0  0  0  0  0  0
   -5.0180    0.8606    0.5640 C   0  0  0  0  0  0  0  0  0  0  0  0
   -6.2631    0.2403    0.5240 C   0  0  0  0  0  0  0  0  0  0  0  0
   -2.8262    2.6747   -2.4424 C   0  0  0  0  0  0  0  0  0  0  0  0
   -2.7669    1.3972   -3.2576 C   0  0  0  0  0  0  0  0  0  0  0  0
    5.9461   -3.4365   -3.0699 H   0  0  0  0  0  0  0  0  0  0  0  0
    4.1951   -3.5012   -2.8257 H   0  0  0  0  0  0  0  0  0  0  0  0
    4.9745   -1.9562   -3.1910 H   0  0  0  0  0  0  0  0  0  0  0  0
    6.3608   -4.5536   -0.8655 H   0  0  0  0  0  0  0  0  0  0  0  0
    5.6957   -3.9001    0.6446 H   0  0  0  0  0  0  0  0  0  0  0  0
    4.6250   -4.6594   -0.5406 H   0  0  0  0  0  0  0  0  0  0  0  0
    6.9506   -1.7261    0.0385 H   0  0  0  0  0  0  0  0  0  0  0  0
    6.6578   -0.9369   -1.5190 H   0  0  0  0  0  0  0  0  0  0  0  0
    7.4813   -2.5046   -1.4619 H   0  0  0  0  0  0  0  0  0  0  0  0
    2.3769   -3.2400   -0.8740 H   0  0  0  0  0  0  0  0  0  0  0  0
    0.5335   -0.3126    0.9905 H   0  0  0  0  0  0  0  0  0  0  0  0
    1.5101    1.5616   -0.3593 H   0  0  0  0  0  0  0  0  0  0  0  0
    4.2387    0.3731    2.7385 H   0  0  0  0  0  0  0  0  0  0  0  0
    3.8846    2.5236    3.8907 H   0  0  0  0  0  0  0  0  0  0  0  0
    2.3646    4.2136    2.9440 H   0  0  0  0  0  0  0  0  0  0  0  0
   -1.4333   -0.5561    0.9994 H   0  0  0  0  0  0  0  0  0  0  0  0
   -1.9805   -4.1338    0.7926 H   0  0  0  0  0  0  0  0  0  0  0  0
    1.2767    3.3305   -1.3026 H   0  0  0  0  0  0  0  0  0  0  0  0
   -0.0714    5.8865   -0.9209 H   0  0  0  0  0  0  0  0  0  0  0  0
    0.3590    5.0504   -2.4318 H   0  0  0  0  0  0  0  0  0  0  0  0
   -2.9158    0.6344    0.6373 H   0  0  0  0  0  0  0  0  0  0  0  0
   -6.2231   -3.8513    0.5833 H   0  0  0  0  0  0  0  0  0  0  0  0
   -4.1667   -5.1984    0.6893 H   0  0  0  0  0  0  0  0  0  0  0  0
   -7.3346   -1.6154    0.5074 H   0  0  0  0  0  0  0  0  0  0  0  0
   -1.9354    4.2331   -0.5665 H   0  0  0  0  0  0  0  0  0  0  0  0
   -2.1209    5.1559   -2.0805 H   0  0  0  0  0  0  0  0  0  0  0  0
   -4.9514    1.9447    0.5498 H   0  0  0  0  0  0  0  0  0  0  0  0
   -7.1675    0.8401    0.4800 H   0  0  0  0  0  0  0  0  0  0  0  0
   -3.4688    3.4064   -2.9441 H   0  0  0  0  0  0  0  0  0  0  0  0
   -3.2287    2.4620   -1.4467 H   0  0  0  0  0  0  0  0  0  0  0  0
   -3.7639    0.9616   -3.3708 H   0  0  0  0  0  0  0  0  0  0  0  0
   -2.3367    1.5901   -4.2452 H   0  0  0  0  0  0  0  0  0  0  0  0
   -1.9160   -0.3466   -3.1342 H   0  0  0  0  0  0  0  0  0  0  0  0
  1 21  2  0  0  0  0
  2 26  2  0  0  0  0
  3 34  1  0  0  0  0
  3 37  1  0  0  0  0
  4 38  1  0  0  0  0
  4 71  1  0  0  0  0
  5  6  1  0  0  0  0
  5 16  1  0  0  0  0
  5 17  1  0  0  0  0
  6 11  2  0  0  0  0
  7 16  1  0  0  0  0
  7 21  1  0  0  0  0
  7 49  1  0  0  0  0
  8 21  1  0  0  0  0
  8 24  1  0  0  0  0
  8 54  1  0  0  0  0
  9 26  1  0  0  0  0
  9 29  1  0  0  0  0
  9 56  1  0  0  0  0
 10 11  1  0  0  0  0
 10 12  1  0  0  0  0
 10 13  1  0  0  0  0
 10 14  1  0  0  0  0
 11 15  1  0  0  0  0
 12 39  1  0  0  0  0
 12 40  1  0  0  0  0
 12 41  1  0  0  0  0
 13 42  1  0  0  0  0
 13 43  1  0  0  0  0
 13 44  1  0  0  0  0
 14 45  1  0  0  0  0
 14 46  1  0  0  0  0
 14 47  1  0  0  0  0
 15 16  2  0  0  0  0
 15 48  1  0  0  0  0
 17 18  1  0  0  0  0
 17 19  2  0  0  0  0
 18 20  2  0  0  0  0
 18 50  1  0  0  0  0
 19 22  1  0  0  0  0
 19 51  1  0  0  0  0
 20 23  1  0  0  0  0
 20 26  1  0  0  0  0
 22 23  2  0  0  0  0
 22 52  1  0  0  0  0
 23 53  1  0  0  0  0
 24 25  1  0  0  0  0
 24 28  2  0  0  0  0
 25 27  1  0  0  0  0
 25 30  2  0  0  0  0
 27 31  1  0  0  0  0
 27 33  2  0  0  0  0
 28 32  1  0  0  0  0
 28 55  1  0  0  0  0
 29 34  1  0  0  0  0
 29 57  1  0  0  0  0
 29 58  1  0  0  0  0
 30 35  1  0  0  0  0
 30 59  1  0  0  0  0
 31 32  2  0  0  0  0
 31 60  1  0  0  0  0
 32 61  1  0  0  0  0
 33 36  1  0  0  0  0
 33 62  1  0  0  0  0
 34 63  1  0  0  0  0
 34 64  1  0  0  0  0
 35 36  2  0  0  0  0
 35 65  1  0  0  0  0
 36 66  1  0  0  0  0
 37 38  1  0  0  0  0
 37 67  1  0  0  0  0
 37 68  1  0  0  0  0
 38 69  1  0  0  0  0
 38 70  1  0  0  0  0
M  END
> <PUBCHEM_COMPOUND_CID>
49830655

> <PUBCHEM_CONFORMER_RMSD>
1.2

> <PUBCHEM_CONFORMER_DIVERSEORDER>
1
82
37
5
34
81
78
29
60
46
44
17
79
39
59
53
28
48
61
75
8
11
70
38
52
54
30
21
74
42
50
57
49
10
62
77
13
55
76
58
80
69
65
47
64
40
33
43
72
63
22
41
6
4
73
36
66
56
45
26
23
51
3
19
16
12
24
14
25
2
18
27
7
9
68
67
35
71
32
15
31
20

> <PUBCHEM_MMFF94_PARTIAL_CHARGES>
49
1 -0.57
10 0.18
11 0.11
15 -0.15
16 -0.09
17 -0.02
18 -0.15
19 -0.15
2 -0.57
20 0.09
21 0.69
22 -0.15
23 -0.15
24 0.12
26 0.54
28 -0.15
29 0.3
3 -0.56
30 -0.15
31 -0.15
32 -0.15
33 -0.15
34 0.28
35 -0.15
36 -0.15
37 0.28
38 0.28
4 -0.68
48 0.15
49 0.37
5 0.59
50 0.15
51 0.15
52 0.15
53 0.15
54 0.37
55 0.15
56 0.37
59 0.15
6 -0.71
60 0.15
61 0.15
62 0.15
65 0.15
66 0.15
7 -0.49
71 0.4
8 -0.55
9 -0.73

> <PUBCHEM_EFFECTIVE_ROTOR_COUNT>
13

> <PUBCHEM_PHARMACOPHORE_FEATURES>
14
1 1 acceptor
1 2 acceptor
1 3 acceptor
1 4 acceptor
1 4 donor
1 6 acceptor
1 7 donor
1 8 donor
1 9 donor
4 10 12 13 14 hydrophobe
5 5 6 11 15 16 rings
6 17 18 19 20 22 23 rings
6 24 25 27 28 31 32 rings
6 25 27 30 33 35 36 rings

> <PUBCHEM_HEAVY_ATOM_COUNT>
38

> <PUBCHEM_ATOM_DEF_STEREO_COUNT>
0

> <PUBCHEM_ATOM_UDEF_STEREO_COUNT>
0

> <PUBCHEM_BOND_DEF_STEREO_COUNT>
0

> <PUBCHEM_BOND_UDEF_STEREO_COUNT>
0

> <PUBCHEM_ISOTOPIC_ATOM_COUNT>
0

> <PUBCHEM_COMPONENT_COUNT>
1

> <PUBCHEM_CACTVS_TAUTO_COUNT>
14

> <PUBCHEM_CONFORMER_ID>
02F85AFF00000001

> <PUBCHEM_MMFF94_ENERGY>
123.1715

> <PUBCHEM_FEATURE_SELFOVERLAP>
71.129

> <PUBCHEM_SHAPE_FINGERPRINT>
10462674 369 18411426081653304030
10864689 126 18118952604304459501
10974685 15 17687158921899941724
11093857 5 18120639245924331400
11093857 51 17686629351698947148
11513181 2 17041497574428007732
12156800 1 17411379474970433476
12202916 173 17401143167575921620
1361 87 18337945676097218917
15264996 44 18262236758878352317
15297060 5 17117220918489150385
15419008 47 18410016498396436846
16067689 391 17051885240723176790
21049683 271 18270414909687020346
21133410 127 17902222644510451957
21792965 302 18336276716889417428
23536364 44 17981887441498321358
23559900 14 18343585161546693051
244849 19 18269536317738102382
3103668 31 18120947109026458548
3493558 16 18269280226382141089
4017518 198 17181952466646510052
4144715 1 18339651160450450275
4409770 3 17978239257722743530
5081480 168 18272930518559399492
508706 21 18187910773599664005
86090 222 17830414394645724573

> <PUBCHEM_SHAPE_MULTIPOLES>
733.64
13.9
7.55
2.54
2.86
6.03
1.22
-15.81
0.13
-1.74
1.12
-1.11
2.74
6.74

> <PUBCHEM_SHAPE_SELFOVERLAP>
1572.699

> <PUBCHEM_SHAPE_VOLUME>
404.6

> <PUBCHEM_COORDINATE_TYPE>
2
5
10

$$$$
