404051
  -OEChem-10052115183D

 26 28  0     0  0  0  0  0  0999 V2000
    1.4311    0.7939    0.1529 N   0  0  0  0  0  0  0  0  0  0  0  0
    0.2188   -1.0307   -0.2001 N   0  0  0  0  0  0  0  0  0  0  0  0
    3.7529    0.9882    0.1888 N   0  0  0  0  0  0  0  0  0  0  0  0
    5.0605   -0.9939   -0.1983 N   0  0  0  0  0  0  0  0  0  0  0  0
   -0.6018    0.0517    0.0101 C   0  0  0  0  0  0  0  0  0  0  0  0
    1.4419   -0.5525   -0.1078 C   0  0  0  0  0  0  0  0  0  0  0  0
    0.1287    1.1971    0.2314 C   0  0  0  0  0  0  0  0  0  0  0  0
   -2.0299   -0.0143   -0.0014 C   0  0  0  0  0  0  0  0  0  0  0  0
    2.7198   -1.1428   -0.2229 C   0  0  0  0  0  0  0  0  0  0  0  0
    2.5852    1.5424    0.2971 C   0  0  0  0  0  0  0  0  0  0  0  0
    3.8330   -0.3806   -0.0761 C   0  0  0  0  0  0  0  0  0  0  0  0
   -2.7822    1.0941   -0.4012 C   0  0  0  0  0  0  0  0  0  0  0  0
   -2.6832   -1.1876    0.3871 C   0  0  0  0  0  0  0  0  0  0  0  0
   -4.1756    1.0299   -0.4121 C   0  0  0  0  0  0  0  0  0  0  0  0
   -4.0766   -1.2517    0.3760 C   0  0  0  0  0  0  0  0  0  0  0  0
   -4.8227   -0.1430   -0.0236 C   0  0  0  0  0  0  0  0  0  0  0  0
   -0.1422    2.2242    0.4368 H   0  0  0  0  0  0  0  0  0  0  0  0
    2.7830   -2.2065   -0.4297 H   0  0  0  0  0  0  0  0  0  0  0  0
    2.4928    2.6202    0.5057 H   0  0  0  0  0  0  0  0  0  0  0  0
   -2.3108    2.0200   -0.7218 H   0  0  0  0  0  0  0  0  0  0  0  0
   -2.1230   -2.0635    0.7062 H   0  0  0  0  0  0  0  0  0  0  0  0
   -4.7569    1.8921   -0.7257 H   0  0  0  0  0  0  0  0  0  0  0  0
   -4.5809   -2.1646    0.6793 H   0  0  0  0  0  0  0  0  0  0  0  0
   -5.9075   -0.1932   -0.0327 H   0  0  0  0  0  0  0  0  0  0  0  0
    5.1239   -1.9855   -0.3917 H   0  0  0  0  0  0  0  0  0  0  0  0
    5.8976   -0.4351   -0.0927 H   0  0  0  0  0  0  0  0  0  0  0  0
  1  6  1  0  0  0  0
  1  7  1  0  0  0  0
  1 10  1  0  0  0  0
  2  5  1  0  0  0  0
  2  6  2  0  0  0  0
  3 10  2  0  0  0  0
  3 11  1  0  0  0  0
  4 11  1  0  0  0  0
  4 25  1  0  0  0  0
  4 26  1  0  0  0  0
  5  7  2  0  0  0  0
  5  8  1  0  0  0  0
  6  9  1  0  0  0  0
  7 17  1  0  0  0  0
  8 12  2  0  0  0  0
  8 13  1  0  0  0  0
  9 11  2  0  0  0  0
  9 18  1  0  0  0  0
 10 19  1  0  0  0  0
 12 14  1  0  0  0  0
 12 20  1  0  0  0  0
 13 15  2  0  0  0  0
 13 21  1  0  0  0  0
 14 16  2  0  0  0  0
 14 22  1  0  0  0  0
 15 16  1  0  0  0  0
 15 23  1  0  0  0  0
 16 24  1  0  0  0  0
M  END
> <PUBCHEM_COMPOUND_CID>
404051

> <PUBCHEM_CONFORMER_RMSD>
0.6

> <PUBCHEM_CONFORMER_DIVERSEORDER>
1

> <PUBCHEM_MMFF94_PARTIAL_CHARGES>
26
1 0.29
10 0.4
11 0.27
12 -0.15
13 -0.15
14 -0.15
15 -0.15
16 -0.15
17 0.15
18 0.15
19 0.06
2 -0.57
20 0.15
21 0.15
22 0.15
23 0.15
24 0.15
25 0.4
26 0.4
3 -0.62
4 -0.9
5 0.17
6 0.14
7 -0.3
8 0.05
9 -0.11

> <PUBCHEM_EFFECTIVE_ROTOR_COUNT>
1

> <PUBCHEM_PHARMACOPHORE_FEATURES>
7
1 4 cation
1 4 donor
3 1 2 6 cation
3 1 3 10 cation
5 1 2 5 6 7 rings
6 1 3 6 9 10 11 rings
6 8 12 13 14 15 16 rings

> <PUBCHEM_HEAVY_ATOM_COUNT>
16

> <PUBCHEM_ATOM_DEF_STEREO_COUNT>
0

> <PUBCHEM_ATOM_UDEF_STEREO_COUNT>
0

> <PUBCHEM_BOND_DEF_STEREO_COUNT>
0

> <PUBCHEM_BOND_UDEF_STEREO_COUNT>
0

> <PUBCHEM_ISOTOPIC_ATOM_COUNT>
0

> <PUBCHEM_COMPONENT_COUNT>
1

> <PUBCHEM_CACTVS_TAUTO_COUNT>
2

> <PUBCHEM_CONFORMER_ID>
00062A5300000001

> <PUBCHEM_MMFF94_ENERGY>
44.3812

> <PUBCHEM_FEATURE_SELFOVERLAP>
35.767

> <PUBCHEM_SHAPE_FINGERPRINT>
10608611 8 18409443696194610181
10680689 15 17822014198891705889
11471102 20 18342455950235161284
11615757 297 17847065505825122121
12032990 46 18411140242282509368
12236239 1 16702301252431232055
124424 183 18412543206540520305
13288520 33 18410014308111029918
13296908 3 18410573993836337825
13675066 3 18272082829316985248
13690532 89 18413389813388008586
13760787 19 17822008687926607810
14252887 29 17560807593784127358
15196674 1 18410855485897972065
15219456 202 18410854378091860773
15242439 84 18335700524908127413
15375358 24 18412262830986084983
15536298 74 18342457066821189208
17834074 16 18409449197862924635
18175812 5 18409448098308917253
18186145 218 17967525779065812245
1986462 14 18260267443216065151
200 152 17918270957198472715
20279233 1 18411987953110731103
20645477 70 18273215270422415022
21065198 57 18409729577664965017
21065201 7 17895185615087714593
21267235 1 18411991251408276463
21452121 103 18200582705418991176
221490 88 18264214771216194914
22485316 2 18408039615250130219
23402539 116 16660360363830143447
23402655 69 18343301465733636669
23557571 272 17967533424350374805
23559900 14 18409444769878002760
26918003 58 18342737407699635123
3004659 81 18114186273201564190
3545911 37 18334858295049220485
42 15 18409168813665293975
4214541 1 18409730643012208549
474 4 15431179056646304964
4990 188 18413112736352385718
5104073 3 18411138051849208857
542803 24 14707207708248467061
633830 44 17749386004993812278
69090 78 18341890822812721583
77779 3 18409167727181038349
8809292 202 18261397779808631739
9709674 26 18263367052220486571

> <PUBCHEM_SHAPE_MULTIPOLES>
309.35
9.83
1.5
0.66
0.18
0.12
0
-1.27
-0.32
0.1
0.05
-0.13
0.01
0.65

> <PUBCHEM_SHAPE_SELFOVERLAP>
692.951

> <PUBCHEM_SHAPE_VOLUME>
163.1

> <PUBCHEM_COORDINATE_TYPE>
2
5
10

$$$$
