135398512
  -OEChem-10052115193D

 39 42  0     0  0  0  0  0  0999 V2000
    2.9106   -1.1599    1.9889 Cl  0  0  0  0  0  0  0  0  0  0  0  0
   -3.2264   -2.5138    1.1959 F   0  0  0  0  0  0  0  0  0  0  0  0
   -4.8237   -0.4856    0.2410 O   0  0  0  0  0  0  0  0  0  0  0  0
   -0.9827    2.1697   -0.7789 N   0  0  0  0  0  0  0  0  0  0  0  0
    1.7045    0.7558   -0.1178 N   0  0  0  0  0  0  0  0  0  0  0  0
    1.6196    4.2461    0.0369 N   0  0  0  0  0  0  0  0  0  0  0  0
    0.3625    4.0949   -0.4026 N   0  0  0  0  0  0  0  0  0  0  0  0
   -0.6584   -0.1582    0.0507 C   0  0  0  0  0  0  0  0  0  0  0  0
   -1.4619    0.9061   -0.3837 C   0  0  0  0  0  0  0  0  0  0  0  0
    0.8356   -0.2051   -0.1003 C   0  0  0  0  0  0  0  0  0  0  0  0
    1.3570    2.0935   -0.0603 C   0  0  0  0  0  0  0  0  0  0  0  0
    0.1807    2.7642   -0.4372 C   0  0  0  0  0  0  0  0  0  0  0  0
    2.2707    3.0716    0.2454 C   0  0  0  0  0  0  0  0  0  0  0  0
    1.4603   -1.5525   -0.2888 C   0  0  0  0  0  0  0  0  0  0  0  0
   -1.2844   -1.2963    0.6074 C   0  0  0  0  0  0  0  0  0  0  0  0
   -2.8682    0.7592   -0.3238 C   0  0  0  0  0  0  0  0  0  0  0  0
   -3.4687   -0.3868    0.1908 C   0  0  0  0  0  0  0  0  0  0  0  0
   -2.6728   -1.4106    0.6743 C   0  0  0  0  0  0  0  0  0  0  0  0
    3.6788    3.0226    0.6736 C   0  0  0  0  0  0  0  0  0  0  0  0
    2.4031   -2.0602    0.6051 C   0  0  0  0  0  0  0  0  0  0  0  0
    1.0743   -2.3055   -1.3977 C   0  0  0  0  0  0  0  0  0  0  0  0
    2.9600   -3.3209    0.3900 C   0  0  0  0  0  0  0  0  0  0  0  0
    1.6312   -3.5660   -1.6128 C   0  0  0  0  0  0  0  0  0  0  0  0
    2.5740   -4.0738   -0.7189 C   0  0  0  0  0  0  0  0  0  0  0  0
   -5.5759    0.6114   -0.2774 C   0  0  0  0  0  0  0  0  0  0  0  0
   -1.7088    2.7621   -1.1750 H   0  0  0  0  0  0  0  0  0  0  0  0
   -0.7039   -2.1272    1.0013 H   0  0  0  0  0  0  0  0  0  0  0  0
   -3.4532    1.6060   -0.6736 H   0  0  0  0  0  0  0  0  0  0  0  0
    1.9755    5.1870    0.1522 H   0  0  0  0  0  0  0  0  0  0  0  0
    4.3337    2.8557   -0.1875 H   0  0  0  0  0  0  0  0  0  0  0  0
    3.8404    2.2087    1.3877 H   0  0  0  0  0  0  0  0  0  0  0  0
    3.9858    3.9548    1.1592 H   0  0  0  0  0  0  0  0  0  0  0  0
    0.3485   -1.9226   -2.1106 H   0  0  0  0  0  0  0  0  0  0  0  0
    3.6962   -3.7309    1.0767 H   0  0  0  0  0  0  0  0  0  0  0  0
    1.3324   -4.1515   -2.4774 H   0  0  0  0  0  0  0  0  0  0  0  0
    3.0079   -5.0551   -0.8869 H   0  0  0  0  0  0  0  0  0  0  0  0
   -5.3853    0.7630   -1.3454 H   0  0  0  0  0  0  0  0  0  0  0  0
   -5.4136    1.5223    0.3087 H   0  0  0  0  0  0  0  0  0  0  0  0
   -6.6349    0.3522   -0.1765 H   0  0  0  0  0  0  0  0  0  0  0  0
  1 20  1  0  0  0  0
  2 18  1  0  0  0  0
  3 17  1  0  0  0  0
  3 25  1  0  0  0  0
  4  9  1  0  0  0  0
  4 12  1  0  0  0  0
  4 26  1  0  0  0  0
  5 10  2  0  0  0  0
  5 11  1  0  0  0  0
  6  7  1  0  0  0  0
  6 13  1  0  0  0  0
  6 29  1  0  0  0  0
  7 12  2  0  0  0  0
  8  9  1  0  0  0  0
  8 10  1  0  0  0  0
  8 15  2  0  0  0  0
  9 16  2  0  0  0  0
 10 14  1  0  0  0  0
 11 12  1  0  0  0  0
 11 13  2  0  0  0  0
 13 19  1  0  0  0  0
 14 20  1  0  0  0  0
 14 21  2  0  0  0  0
 15 18  1  0  0  0  0
 15 27  1  0  0  0  0
 16 17  1  0  0  0  0
 16 28  1  0  0  0  0
 17 18  2  0  0  0  0
 19 30  1  0  0  0  0
 19 31  1  0  0  0  0
 19 32  1  0  0  0  0
 20 22  2  0  0  0  0
 21 23  1  0  0  0  0
 21 33  1  0  0  0  0
 22 24  1  0  0  0  0
 22 34  1  0  0  0  0
 23 24  2  0  0  0  0
 23 35  1  0  0  0  0
 24 36  1  0  0  0  0
 25 37  1  0  0  0  0
 25 38  1  0  0  0  0
 25 39  1  0  0  0  0
M  END
> <PUBCHEM_COMPOUND_CID>
135398512

> <PUBCHEM_CONFORMER_RMSD>
0.6

> <PUBCHEM_CONFORMER_DIVERSEORDER>
1
3
2
4
5

> <PUBCHEM_MMFF94_PARTIAL_CHARGES>
33
1 -0.18
10 0.28
11 0.12
12 0.37
13 -0.33
14 0.09
15 -0.15
16 -0.15
17 0.08
18 0.19
19 0.18
2 -0.19
20 0.18
21 -0.15
22 -0.15
23 -0.15
24 -0.15
25 0.28
26 0.4
27 0.15
28 0.15
29 0.27
3 -0.36
33 0.15
34 0.15
35 0.15
36 0.15
4 -0.58
5 -0.57
6 0.3
7 -0.71
8 0.09
9 0.1

> <PUBCHEM_EFFECTIVE_ROTOR_COUNT>
2.2

> <PUBCHEM_PHARMACOPHORE_FEATURES>
9
1 3 acceptor
1 4 donor
1 5 acceptor
1 6 donor
3 4 7 12 cation
5 6 7 11 12 13 rings
6 14 20 21 22 23 24 rings
6 8 9 15 16 17 18 rings
7 4 5 8 9 10 11 12 rings

> <PUBCHEM_HEAVY_ATOM_COUNT>
25

> <PUBCHEM_ATOM_DEF_STEREO_COUNT>
0

> <PUBCHEM_ATOM_UDEF_STEREO_COUNT>
0

> <PUBCHEM_BOND_DEF_STEREO_COUNT>
0

> <PUBCHEM_BOND_UDEF_STEREO_COUNT>
0

> <PUBCHEM_ISOTOPIC_ATOM_COUNT>
0

> <PUBCHEM_COMPONENT_COUNT>
1

> <PUBCHEM_CACTVS_TAUTO_COUNT>
-1

> <PUBCHEM_CONFORMER_ID>
0812047000000001

> <PUBCHEM_MMFF94_ENERGY>
99.6306

> <PUBCHEM_FEATURE_SELFOVERLAP>
45.729

> <PUBCHEM_SHAPE_FINGERPRINT>
10411042 1 18194403282161158455
1100329 8 17762613297950135096
116883 192 18122628245204489271
12160290 23 17251195912159166265
12363563 72 18194128412865261183
12553582 1 18194421999565174951
12788726 201 17831034432829468991
13140716 1 18121218950645089113
138480 1 18410577245153019645
14022347 108 18045511815595161019
140371 6 18338797806024300736
14178342 30 17900266596164822145
14363568 33 18267610016121070634
14790565 3 17975137852890444108
14866123 147 16752122013971945411
14955137 171 18410571804168115930
15042514 8 17545325176942118891
15324884 4 17768504124668869638
15420108 30 18198046183094852528
15927050 60 17834960046676989564
16728300 4 17753294760942391768
1813 80 18198070170724863351
19591789 44 18121503724303876020
1979834 28 18342728633107739113
20028762 73 17622733436790125094
20510252 161 17259901819695677744
20642791 13 17980747247518519037
20642791 268 18130794408211049849
20832881 197 18118409445570380561
20905425 154 18260827111714583188
21049683 271 18263383463216243238
21731228 192 17763474206436663161
23184049 29 18119248363661556950
23419403 2 17824515570248250908
23559900 14 18411418423272563723
3091708 16 9070482179164490613
3298306 158 18264778833766671220
3421961 26 18411138004936922465
3493558 16 16841353004825397353
38695281 34 18124878107871658408
484985 159 14791023247943027744
495365 180 18200306749243003929
5265222 85 17759533553228246780
532947 4 18269564982117662636
5385378 56 18340780333433244601
5939293 188 18409165528031403298
6004065 56 18339347588283420695
6138700 20 18337962281184277996
6669772 16 18055931024398553716
7364860 26 18410578421857949153
81228 2 17836649621505654552
9709674 26 18408608084964741483
9841814 1 18188209806054651179
9981440 41 18050845821584845753

> <PUBCHEM_SHAPE_MULTIPOLES>
483.29
6.97
5.85
1.17
7.96
5.73
-0.14
-5.65
-0.93
-4.87
0.69
-0.81
-0.76
1.63

> <PUBCHEM_SHAPE_SELFOVERLAP>
1069.846

> <PUBCHEM_SHAPE_VOLUME>
259.8

> <PUBCHEM_COORDINATE_TYPE>
2
5
10

$$$$
