3270866
  -OEChem-10062121533D

 39 42  0     1  0  0  0  0  0999 V2000
   -1.7343    0.7031   -0.3532 S   0  0  0  0  0  0  0  0  0  0  0  0
    4.3360    1.4057   -0.1027 O   0  0  0  0  0  0  0  0  0  0  0  0
   -1.5824   -3.0201    0.5394 O   0  0  0  0  0  0  0  0  0  0  0  0
    0.9962    3.0913   -0.2475 O   0  0  0  0  0  0  0  0  0  0  0  0
   -4.5130    1.2146    0.5687 O   0  0  0  0  0  0  0  0  0  0  0  0
   -0.0922   -1.2908   -0.0857 N   0  0  0  0  0  0  0  0  0  0  0  0
    1.1154   -3.3790    0.0528 N   0  0  0  0  0  0  0  0  0  0  0  0
    0.8116    2.3762   -2.4353 N   0  0  0  0  0  0  0  0  0  0  0  0
    4.4988   -2.6820   -0.6797 N   0  0  0  0  0  0  0  0  0  0  0  0
    2.3584    0.1496   -0.6365 C   0  0  2  0  0  0  0  0  0  0  0  0
    0.9825    0.7768   -0.6878 C   0  0  0  0  0  0  0  0  0  0  0  0
   -0.1164    0.0627   -0.3945 C   0  0  0  0  0  0  0  0  0  0  0  0
    2.2766   -1.3620   -0.4385 C   0  0  0  0  0  0  0  0  0  0  0  0
    1.1146   -2.0122   -0.1545 C   0  0  0  0  0  0  0  0  0  0  0  0
    3.2369    0.7978    0.3850 C   0  0  0  0  0  0  0  0  0  0  0  0
   -1.3322   -1.8631    0.2294 C   0  0  0  0  0  0  0  0  0  0  0  0
   -2.3756   -0.8146    0.1287 C   0  0  0  0  0  0  0  0  0  0  0  0
    0.9327    2.1987   -1.0815 C   0  0  0  0  0  0  0  0  0  0  0  0
    3.1475    0.8990    1.7363 C   0  0  0  0  0  0  0  0  0  0  0  0
   -3.6640   -1.0516    0.3849 C   0  0  0  0  0  0  0  0  0  0  0  0
    3.5057   -2.0922   -0.5717 C   0  0  0  0  0  0  0  0  0  0  0  0
    4.2899    1.6344    2.1328 C   0  0  0  0  0  0  0  0  0  0  0  0
    4.9806    1.9191    0.9780 C   0  0  0  0  0  0  0  0  0  0  0  0
   -4.7558   -0.0641    0.3068 C   0  0  0  0  0  0  0  0  0  0  0  0
   -6.0258   -0.3401   -0.0188 C   0  0  0  0  0  0  0  0  0  0  0  0
   -6.6774    0.9147    0.0419 C   0  0  0  0  0  0  0  0  0  0  0  0
   -5.7143    1.8279    0.4032 C   0  0  0  0  0  0  0  0  0  0  0  0
    2.8070    0.3048   -1.6301 H   0  0  0  0  0  0  0  0  0  0  0  0
    2.3690    0.5020    2.3718 H   0  0  0  0  0  0  0  0  0  0  0  0
    1.9715   -3.9160    0.0081 H   0  0  0  0  0  0  0  0  0  0  0  0
    0.2435   -3.8513    0.2513 H   0  0  0  0  0  0  0  0  0  0  0  0
   -3.9770   -2.0618    0.6414 H   0  0  0  0  0  0  0  0  0  0  0  0
    4.5742    1.9212    3.1349 H   0  0  0  0  0  0  0  0  0  0  0  0
    5.8979    2.4490    0.7667 H   0  0  0  0  0  0  0  0  0  0  0  0
    0.7663    3.3071   -2.8364 H   0  0  0  0  0  0  0  0  0  0  0  0
    0.7637    1.5993   -3.0872 H   0  0  0  0  0  0  0  0  0  0  0  0
   -6.4640   -1.2951   -0.2720 H   0  0  0  0  0  0  0  0  0  0  0  0
   -7.7186    1.1273   -0.1537 H   0  0  0  0  0  0  0  0  0  0  0  0
   -5.7221    2.8945    0.5749 H   0  0  0  0  0  0  0  0  0  0  0  0
  1 12  1  0  0  0  0
  1 17  1  0  0  0  0
  2 15  1  0  0  0  0
  2 23  1  0  0  0  0
  3 16  2  0  0  0  0
  4 18  2  0  0  0  0
  5 24  1  0  0  0  0
  5 27  1  0  0  0  0
  6 12  1  0  0  0  0
  6 14  1  0  0  0  0
  6 16  1  0  0  0  0
  7 14  1  0  0  0  0
  7 30  1  0  0  0  0
  7 31  1  0  0  0  0
  8 18  1  0  0  0  0
  8 35  1  0  0  0  0
  8 36  1  0  0  0  0
  9 21  3  0  0  0  0
 10 11  1  0  0  0  0
 10 13  1  0  0  0  0
 10 15  1  0  0  0  0
 10 28  1  0  0  0  0
 11 12  2  0  0  0  0
 11 18  1  0  0  0  0
 13 14  2  0  0  0  0
 13 21  1  0  0  0  0
 15 19  2  0  0  0  0
 16 17  1  0  0  0  0
 17 20  2  3  0  0  0
 19 22  1  0  0  0  0
 19 29  1  0  0  0  0
 20 24  1  0  0  0  0
 20 32  1  0  0  0  0
 22 23  2  0  0  0  0
 22 33  1  0  0  0  0
 23 34  1  0  0  0  0
 24 25  2  0  0  0  0
 25 26  1  0  0  0  0
 25 37  1  0  0  0  0
 26 27  2  0  0  0  0
 26 38  1  0  0  0  0
 27 39  1  0  0  0  0
M  END
> <PUBCHEM_COMPOUND_CID>
3270866

> <PUBCHEM_CONFORMER_RMSD>
0.8

> <PUBCHEM_CONFORMER_DIVERSEORDER>
1
9
10
6
11
3
8
5
7
4
2

> <PUBCHEM_MMFF94_PARTIAL_CHARGES>
38
1 -0.2
10 0.46
11 -0.12
12 0.21
13 -0.07
14 0.21
15 -0.04
16 0.62
17 0.12
18 0.62
19 -0.15
2 -0.28
20 -0.11
21 0.49
22 -0.15
23 -0.01
24 0.09
25 -0.15
26 -0.15
27 -0.01
29 0.15
3 -0.57
30 0.4
31 0.4
32 0.15
33 0.15
34 0.15
35 0.37
36 0.37
37 0.15
38 0.15
39 0.15
4 -0.57
5 -0.28
6 -0.28
7 -0.9
8 -0.8
9 -0.56

> <PUBCHEM_EFFECTIVE_ROTOR_COUNT>
3.2

> <PUBCHEM_PHARMACOPHORE_FEATURES>
12
1 2 acceptor
1 3 acceptor
1 4 acceptor
1 5 acceptor
1 7 cation
1 7 donor
1 8 donor
1 9 acceptor
5 1 6 12 16 17 rings
5 2 15 19 22 23 rings
5 5 24 25 26 27 rings
6 6 10 11 12 13 14 rings

> <PUBCHEM_HEAVY_ATOM_COUNT>
27

> <PUBCHEM_ATOM_DEF_STEREO_COUNT>
0

> <PUBCHEM_ATOM_UDEF_STEREO_COUNT>
1

> <PUBCHEM_BOND_DEF_STEREO_COUNT>
0

> <PUBCHEM_BOND_UDEF_STEREO_COUNT>
1

> <PUBCHEM_ISOTOPIC_ATOM_COUNT>
0

> <PUBCHEM_COMPONENT_COUNT>
1

> <PUBCHEM_CACTVS_TAUTO_COUNT>
4

> <PUBCHEM_CONFORMER_ID>
0031E8D200000001

> <PUBCHEM_MMFF94_ENERGY>
60.5329

> <PUBCHEM_FEATURE_SELFOVERLAP>
60.966

> <PUBCHEM_SHAPE_FINGERPRINT>
10165383 225 18342737464494760488
10411042 1 17762058735582987759
10816530 90 17895205432378542604
10906281 52 17969230095620520764
11961588 58 13254504427438263336
12403259 415 18261951839248133829
12422481 6 18115572773552061513
12633257 1 17531523291025564169
13140716 1 18044655545002587173
13533116 47 18202284667138981163
13583140 156 17488179486139124331
13965767 371 18193534848664210824
14022347 108 17676777491601621474
14170010 4 18408044005424008101
14178342 30 18265048231200828314
14466204 15 18409162234171698273
14790565 3 17903929090724769804
15081414 286 18410012126125576300
15196674 1 18410859854460311623
15238133 3 17603589646506736020
15420108 30 18270945951796247342
1601671 61 18334297612643632180
17980427 23 18192702573642749372
17980427 26 17273103978202190728
1813 80 17095523984881304453
20511986 3 18272076172930111749
20642791 178 17825677917559284292
20739085 24 18334298630329049398
21033648 29 17987225819527628960
21304253 335 18412831282934907613
21421861 104 17822276965033112922
21452121 103 18342734118113616490
21475661 188 17416670548393180848
22149856 69 18268171863301781811
22182313 1 18115293476102476389
23559900 14 18410301302025971854
2748010 2 18408317787940504446
2838139 119 15841279250091722080
335352 9 18336272245174893647
3411729 13 18342171189935491218
34797466 226 17203896258431950037
350125 39 18339924823318667050
4340502 62 18343016705127881257
437815 12 17915193312468055934
474 4 18335706070032789747
495365 180 17846494838016397410
508706 21 17822568310177232437
5104073 3 18411142424680232763
513532 50 18059869358594390084
59755656 215 18341618105579847430
7064713 232 18266452286158713536
8509985 295 17894629266546662037
9841814 1 17095527309391920988
9971528 1 18408606946233678501

> <PUBCHEM_SHAPE_MULTIPOLES>
516.1
12.46
3.35
1.28
16.83
1.32
-0.02
-4.75
3.54
-2.67
-0.3
-1.48
-0.93
1.23

> <PUBCHEM_SHAPE_SELFOVERLAP>
1143.899

> <PUBCHEM_SHAPE_VOLUME>
278.2

> <PUBCHEM_COORDINATE_TYPE>
2
5
10

$$$$
