49830769
  -OEChem-10062121553D

 45 48  0     0  0  0  0  0  0999 V2000
   -2.3653    2.0350   -0.9682 Cl  0  0  0  0  0  0  0  0  0  0  0  0
   -7.0170    0.4376    0.3670 O   0  0  0  0  0  0  0  0  0  0  0  0
   -4.2774   -0.0980    0.0403 N   0  0  0  0  0  0  0  0  0  0  0  0
    1.0971   -1.6494   -0.1920 N   0  0  0  0  0  0  0  0  0  0  0  0
    2.1854    0.3855    0.1726 N   0  0  0  0  0  0  0  0  0  0  0  0
    5.8197   -1.3594   -0.0939 N   0  0  0  0  0  0  0  0  0  0  0  0
    3.4309   -1.6776   -0.1734 N   0  0  0  0  0  0  0  0  0  0  0  0
   -4.7735    0.5017    1.2866 C   0  0  0  0  0  0  0  0  0  0  0  0
   -5.2755   -0.8427   -0.7350 C   0  0  0  0  0  0  0  0  0  0  0  0
   -6.0572    1.2761    1.0098 C   0  0  0  0  0  0  0  0  0  0  0  0
   -6.5330    0.0030   -0.9034 C   0  0  0  0  0  0  0  0  0  0  0  0
   -2.9287   -0.4632   -0.0255 C   0  0  0  0  0  0  0  0  0  0  0  0
   -1.9563    0.4312   -0.4731 C   0  0  0  0  0  0  0  0  0  0  0  0
   -2.5639   -1.7511    0.3670 C   0  0  0  0  0  0  0  0  0  0  0  0
   -0.2546   -1.2504   -0.1362 C   0  0  0  0  0  0  0  0  0  0  0  0
   -0.6192    0.0375   -0.5284 C   0  0  0  0  0  0  0  0  0  0  0  0
   -1.2269   -2.1448    0.3114 C   0  0  0  0  0  0  0  0  0  0  0  0
    4.5578    0.4562    0.2091 C   0  0  0  0  0  0  0  0  0  0  0  0
    3.3258    1.1011    0.3087 C   0  0  0  0  0  0  0  0  0  0  0  0
    4.5268   -0.9124   -0.0293 C   0  0  0  0  0  0  0  0  0  0  0  0
    2.3070   -0.9414   -0.0569 C   0  0  0  0  0  0  0  0  0  0  0  0
    3.1785    2.5628    0.5612 C   0  0  0  0  0  0  0  0  0  0  0  0
    5.9234    0.8313    0.2876 C   0  0  0  0  0  0  0  0  0  0  0  0
    6.6778   -0.3069    0.0978 C   0  0  0  0  0  0  0  0  0  0  0  0
    2.8182    3.3381   -0.7039 C   0  0  0  0  0  0  0  0  0  0  0  0
   -4.9710   -0.3002    2.0085 H   0  0  0  0  0  0  0  0  0  0  0  0
   -4.0305    1.1778    1.7253 H   0  0  0  0  0  0  0  0  0  0  0  0
   -4.8826   -1.1083   -1.7233 H   0  0  0  0  0  0  0  0  0  0  0  0
   -5.5249   -1.7691   -0.2036 H   0  0  0  0  0  0  0  0  0  0  0  0
   -5.8655    2.1567    0.3847 H   0  0  0  0  0  0  0  0  0  0  0  0
   -6.4924    1.6260    1.9512 H   0  0  0  0  0  0  0  0  0  0  0  0
   -7.3205   -0.5897   -1.3794 H   0  0  0  0  0  0  0  0  0  0  0  0
   -6.3442    0.8763   -1.5395 H   0  0  0  0  0  0  0  0  0  0  0  0
   -3.3061   -2.4603    0.7250 H   0  0  0  0  0  0  0  0  0  0  0  0
    0.1077    0.7388   -0.9261 H   0  0  0  0  0  0  0  0  0  0  0  0
   -0.9553   -3.1505    0.6220 H   0  0  0  0  0  0  0  0  0  0  0  0
    1.2354   -2.6549   -0.2270 H   0  0  0  0  0  0  0  0  0  0  0  0
    4.0991    2.9759    0.9885 H   0  0  0  0  0  0  0  0  0  0  0  0
    2.3938    2.7163    1.3120 H   0  0  0  0  0  0  0  0  0  0  0  0
    6.3216    1.8213    0.4626 H   0  0  0  0  0  0  0  0  0  0  0  0
    6.0980   -2.3170   -0.2576 H   0  0  0  0  0  0  0  0  0  0  0  0
    7.7475   -0.4609    0.0817 H   0  0  0  0  0  0  0  0  0  0  0  0
    1.8705    2.9881   -1.1270 H   0  0  0  0  0  0  0  0  0  0  0  0
    2.7172    4.4043   -0.4784 H   0  0  0  0  0  0  0  0  0  0  0  0
    3.5923    3.2218   -1.4699 H   0  0  0  0  0  0  0  0  0  0  0  0
  1 13  1  0  0  0  0
  2 10  1  0  0  0  0
  2 11  1  0  0  0  0
  3  8  1  0  0  0  0
  3  9  1  0  0  0  0
  3 12  1  0  0  0  0
  4 15  1  0  0  0  0
  4 21  1  0  0  0  0
  4 37  1  0  0  0  0
  5 19  1  0  0  0  0
  5 21  2  0  0  0  0
  6 20  1  0  0  0  0
  6 24  1  0  0  0  0
  6 41  1  0  0  0  0
  7 20  2  0  0  0  0
  7 21  1  0  0  0  0
  8 10  1  0  0  0  0
  8 26  1  0  0  0  0
  8 27  1  0  0  0  0
  9 11  1  0  0  0  0
  9 28  1  0  0  0  0
  9 29  1  0  0  0  0
 10 30  1  0  0  0  0
 10 31  1  0  0  0  0
 11 32  1  0  0  0  0
 11 33  1  0  0  0  0
 12 13  2  0  0  0  0
 12 14  1  0  0  0  0
 13 16  1  0  0  0  0
 14 17  2  0  0  0  0
 14 34  1  0  0  0  0
 15 16  2  0  0  0  0
 15 17  1  0  0  0  0
 16 35  1  0  0  0  0
 17 36  1  0  0  0  0
 18 19  2  0  0  0  0
 18 20  1  0  0  0  0
 18 23  1  0  0  0  0
 19 22  1  0  0  0  0
 22 25  1  0  0  0  0
 22 38  1  0  0  0  0
 22 39  1  0  0  0  0
 23 24  2  0  0  0  0
 23 40  1  0  0  0  0
 24 42  1  0  0  0  0
 25 43  1  0  0  0  0
 25 44  1  0  0  0  0
 25 45  1  0  0  0  0
M  END
> <PUBCHEM_COMPOUND_CID>
49830769

> <PUBCHEM_CONFORMER_RMSD>
0.8

> <PUBCHEM_CONFORMER_DIVERSEORDER>
1
33
8
47
22
28
37
3
45
11
16
30
20
42
9
51
23
13
32
31
21
29
36
48
19
50
38
49
24
26
12
17
27
43
10
39
52
7
4
35
44
14
40
41
2
34
46
5
25
18
6
15

> <PUBCHEM_MMFF94_PARTIAL_CHARGES>
30
1 -0.18
10 0.28
11 0.28
12 0.1
13 0.18
14 -0.15
15 0.1
16 -0.15
17 -0.15
19 0.17
2 -0.56
20 0.11
21 0.72
22 0.14
23 -0.15
24 -0.3
3 -0.84
34 0.15
35 0.15
36 0.15
37 0.4
4 -0.6
40 0.15
41 0.27
42 0.15
5 -0.62
6 0.03
7 -0.57
8 0.37
9 0.37

> <PUBCHEM_EFFECTIVE_ROTOR_COUNT>
5.2

> <PUBCHEM_PHARMACOPHORE_FEATURES>
10
1 2 acceptor
1 25 hydrophobe
1 3 cation
1 4 donor
1 6 donor
4 4 5 7 21 cation
5 6 18 20 23 24 rings
6 12 13 14 15 16 17 rings
6 2 3 8 9 10 11 rings
6 5 7 18 19 20 21 rings

> <PUBCHEM_HEAVY_ATOM_COUNT>
25

> <PUBCHEM_ATOM_DEF_STEREO_COUNT>
0

> <PUBCHEM_ATOM_UDEF_STEREO_COUNT>
0

> <PUBCHEM_BOND_DEF_STEREO_COUNT>
0

> <PUBCHEM_BOND_UDEF_STEREO_COUNT>
0

> <PUBCHEM_ISOTOPIC_ATOM_COUNT>
0

> <PUBCHEM_COMPONENT_COUNT>
1

> <PUBCHEM_CACTVS_TAUTO_COUNT>
17

> <PUBCHEM_CONFORMER_ID>
02F85B7100000001

> <PUBCHEM_MMFF94_ENERGY>
79.5901

> <PUBCHEM_FEATURE_SELFOVERLAP>
50.863

> <PUBCHEM_SHAPE_FINGERPRINT>
10 15 18040432218336091088
10411042 1 17981327782139643574
10688039 33 18040996203192423988
10763959 59 18114175328622535765
11045977 3 18041283252656376395
11089746 13 18413670222996649523
11456790 92 18337955592938913153
11578080 2 15286787891869665092
12166972 35 18202001032110505016
12236239 1 17632576045722033559
12403259 415 18186790375161026733
12633257 1 18409167735755220136
13167372 99 18202004291668630297
13402501 40 18408600344768873612
13533116 47 18060137588172125050
14170010 4 18412822504338304448
14251764 18 18343019999383640794
14341114 176 18408042914180678404
14464042 87 17775291538664275104
15183329 4 18343302556755413922
15196674 1 18338235002104834194
15348495 7 17968105277892144547
15361156 5 18115033020917225582
15419008 47 17603578617405852029
15483637 11 18121497955842057452
18335252 114 18340759373686651069
21033648 144 18338222890318237076
21033648 29 17749934627142387877
21033650 10 15696625262668642754
21267235 1 18339645543360583470
21344244 181 13262674786997585880
21792961 116 18187647943624858086
221357 26 18411133619891474860
23198884 109 17346881139574497619
23559900 14 18338792415840084450
23569917 315 18410579522141003175
2838139 119 18272650152032566457
3004659 81 18412259554005172880
335352 9 18411701002414546270
34797466 226 15482390958489031497
350125 39 18409168826819539660
3545911 37 18409728456810590406
397830 11 16951704664718740817
4073 2 18261114131510313458
4325135 7 18060697287029917191
5104073 3 18262235650523536586
53794403 172 18116436023529996164
54446538 1 18202845452761285801
57724786 102 18115309015568914436
59755656 215 18334575707375657190
59755656 520 18408316701171717287
9996256 80 18342453733805319831

> <PUBCHEM_SHAPE_MULTIPOLES>
485.58
17.58
2.47
0.9
5.56
1.39
-0.05
1.84
-1.54
-1.86
0.2
0.98
0.26
-0.18

> <PUBCHEM_SHAPE_SELFOVERLAP>
1046.802

> <PUBCHEM_SHAPE_VOLUME>
268.9

> <PUBCHEM_COORDINATE_TYPE>
2
5
10

$$$$
