49830749
  -OEChem-10052120433D

 36 37  0     0  0  0  0  0  0999 V2000
   -3.3570   -0.6341    0.0408 O   0  0  0  0  0  0  0  0  0  0  0  0
   -8.1338   -1.3957    0.2905 N   0  0  0  0  0  0  0  0  0  0  0  0
   -1.3003    2.3738   -0.2876 N   0  0  0  0  0  0  0  0  0  0  0  0
    6.5687   -1.0290    0.0938 N   0  0  0  0  0  0  0  0  0  0  0  0
   -5.7185   -1.0198    0.1467 C   0  0  0  0  0  0  0  0  0  0  0  0
   -4.6159    0.0248    0.0385 C   0  0  0  0  0  0  0  0  0  0  0  0
   -7.1006   -0.3748    0.1654 C   0  0  0  0  0  0  0  0  0  0  0  0
   -2.2440    0.1587   -0.0685 C   0  0  0  0  0  0  0  0  0  0  0  0
    0.1421    0.4361   -0.1886 C   0  0  0  0  0  0  0  0  0  0  0  0
   -0.9679   -0.3937   -0.0756 C   0  0  0  0  0  0  0  0  0  0  0  0
    1.4872   -0.1093   -0.2000 C   0  0  0  0  0  0  0  0  0  0  0  0
   -2.3553    1.5357   -0.1763 C   0  0  0  0  0  0  0  0  0  0  0  0
   -0.0759    1.8006   -0.2909 C   0  0  0  0  0  0  0  0  0  0  0  0
    2.6173    0.5868    0.0769 C   0  0  0  0  0  0  0  0  0  0  0  0
    3.9813    0.0290    0.0825 C   0  0  0  0  0  0  0  0  0  0  0  0
    4.2540   -1.1554   -0.5931 C   0  0  0  0  0  0  0  0  0  0  0  0
    5.0007    0.6849    0.7638 C   0  0  0  0  0  0  0  0  0  0  0  0
    5.5522   -1.6383   -0.5572 C   0  0  0  0  0  0  0  0  0  0  0  0
    6.2656    0.1197    0.7389 C   0  0  0  0  0  0  0  0  0  0  0  0
   -5.5620   -1.6166    1.0548 H   0  0  0  0  0  0  0  0  0  0  0  0
   -5.6331   -1.7236   -0.6916 H   0  0  0  0  0  0  0  0  0  0  0  0
   -4.6911    0.7029    0.8979 H   0  0  0  0  0  0  0  0  0  0  0  0
   -4.7562    0.5779   -0.8987 H   0  0  0  0  0  0  0  0  0  0  0  0
   -7.2649    0.1973   -0.7543 H   0  0  0  0  0  0  0  0  0  0  0  0
   -7.1820    0.3190    1.0090 H   0  0  0  0  0  0  0  0  0  0  0  0
   -0.8520   -1.4718    0.0085 H   0  0  0  0  0  0  0  0  0  0  0  0
    1.5397   -1.1713   -0.4240 H   0  0  0  0  0  0  0  0  0  0  0  0
   -3.2976    2.0705   -0.1800 H   0  0  0  0  0  0  0  0  0  0  0  0
    0.7277    2.5210   -0.4028 H   0  0  0  0  0  0  0  0  0  0  0  0
   -9.0516   -0.9546    0.2495 H   0  0  0  0  0  0  0  0  0  0  0  0
   -8.0866   -2.0315   -0.5047 H   0  0  0  0  0  0  0  0  0  0  0  0
    2.5661    1.6370    0.3520 H   0  0  0  0  0  0  0  0  0  0  0  0
    3.5111   -1.7058   -1.1588 H   0  0  0  0  0  0  0  0  0  0  0  0
    4.8288    1.6102    1.3039 H   0  0  0  0  0  0  0  0  0  0  0  0
    5.8185   -2.5556   -1.0720 H   0  0  0  0  0  0  0  0  0  0  0  0
    7.0952    0.5920    1.2547 H   0  0  0  0  0  0  0  0  0  0  0  0
  1  6  1  0  0  0  0
  1  8  1  0  0  0  0
  2  7  1  0  0  0  0
  2 30  1  0  0  0  0
  2 31  1  0  0  0  0
  3 12  1  0  0  0  0
  3 13  2  0  0  0  0
  4 18  2  0  0  0  0
  4 19  1  0  0  0  0
  5  6  1  0  0  0  0
  5  7  1  0  0  0  0
  5 20  1  0  0  0  0
  5 21  1  0  0  0  0
  6 22  1  0  0  0  0
  6 23  1  0  0  0  0
  7 24  1  0  0  0  0
  7 25  1  0  0  0  0
  8 10  1  0  0  0  0
  8 12  2  0  0  0  0
  9 10  2  0  0  0  0
  9 11  1  0  0  0  0
  9 13  1  0  0  0  0
 10 26  1  0  0  0  0
 11 14  2  3  0  0  0
 11 27  1  0  0  0  0
 12 28  1  0  0  0  0
 13 29  1  0  0  0  0
 14 15  1  0  0  0  0
 14 32  1  0  0  0  0
 15 16  2  0  0  0  0
 15 17  1  0  0  0  0
 16 18  1  0  0  0  0
 16 33  1  0  0  0  0
 17 19  2  0  0  0  0
 17 34  1  0  0  0  0
 18 35  1  0  0  0  0
 19 36  1  0  0  0  0
M  END
> <PUBCHEM_COMPOUND_CID>
49830749

> <PUBCHEM_CONFORMER_RMSD>
0.8

> <PUBCHEM_CONFORMER_DIVERSEORDER>
1
9
4
15
21
28
16
10
25
11
17
18
23
27
5
6
14
19
26
24
22
2
3
13
12
20
8
7

> <PUBCHEM_MMFF94_PARTIAL_CHARGES>
29
1 -0.36
10 -0.15
11 -0.18
12 0.16
13 0.16
14 -0.18
15 0.03
16 -0.15
17 -0.15
18 0.16
19 0.16
2 -0.99
26 0.15
27 0.15
28 0.15
29 0.15
3 -0.62
30 0.36
31 0.36
32 0.15
33 0.15
34 0.15
35 0.15
36 0.15
4 -0.62
6 0.28
7 0.27
8 0.08
9 0.03

> <PUBCHEM_EFFECTIVE_ROTOR_COUNT>
6

> <PUBCHEM_PHARMACOPHORE_FEATURES>
7
1 1 acceptor
1 2 cation
1 2 donor
1 3 acceptor
1 4 acceptor
6 3 8 9 10 12 13 rings
6 4 15 16 17 18 19 rings

> <PUBCHEM_HEAVY_ATOM_COUNT>
19

> <PUBCHEM_ATOM_DEF_STEREO_COUNT>
0

> <PUBCHEM_ATOM_UDEF_STEREO_COUNT>
0

> <PUBCHEM_BOND_DEF_STEREO_COUNT>
0

> <PUBCHEM_BOND_UDEF_STEREO_COUNT>
1

> <PUBCHEM_ISOTOPIC_ATOM_COUNT>
0

> <PUBCHEM_COMPONENT_COUNT>
1

> <PUBCHEM_CACTVS_TAUTO_COUNT>
1

> <PUBCHEM_CONFORMER_ID>
02F85B5D00000001

> <PUBCHEM_MMFF94_ENERGY>
52.7856

> <PUBCHEM_FEATURE_SELFOVERLAP>
35.522

> <PUBCHEM_SHAPE_FINGERPRINT>
10354089 29 14117800219550084978
106641 1 17846495971497035882
12236239 1 17458061534940236292
12516196 113 18413388748120146217
13073987 5 17845653647507421352
13288520 33 18407760331329115845
13533116 47 18272369810589845816
13685833 64 18410294722457522339
13862211 1 18408887352074742591
13885169 127 18410292481149504853
13968360 50 15068611678334634824
1420 363 18410575080605592438
14216079 64 18410575072263902471
14251764 18 17846500348538104793
14251764 46 16660362588892260387
15048467 5 9943808880855873011
15183329 4 14706922934889808405
15188451 53 18040711451160245794
15242439 84 7781511534459788364
15690457 1 18201716293565343031
15716309 27 18060699502964113823
1768 124 17917713508951244895
17844677 252 18341899559135060232
18006028 8 18411136948601905461
18222031 100 17458067054073432292
18335252 98 18412545414533531578
19141452 34 18060134383667372367
200 152 14851605462491946988
20281389 69 11671788152017608323
20621476 66 10015862093979686427
20735858 18 17275107241122038431
21150785 3 16370730339768247454
21236236 1 18341894044286314745
21267235 1 18409171004024787964
21792934 111 18341041982788390193
22224240 67 16917064477791969271
2297311 6 18340774749933405692
23035841 295 18187365437333568635
23198884 109 14345793838510628975
23402539 116 18410568483535819613
23559900 14 17895477054141034552
23845131 108 17264424136802113873
28498 318 18408321078175265527
3004659 81 17749110010395364972
33532 11 18410291397900303259
4214541 1 18340767027766869036
4325135 7 18335143116169594884
4340502 62 15339124537059261861
4463277 17 18409448090099050341
465052 167 18342181084875587359
5104073 3 18129374904988238088
5758199 1 9871756802146660727
59682541 35 18341608265672674696
59682541 52 14562524094004096530
59755656 215 18186802456846410595

> <PUBCHEM_SHAPE_MULTIPOLES>
370.2
19.84
1.65
0.72
15.49
0.52
-0.02
-10.96
-3.12
0.22
0.22
-0.46
0
0.92

> <PUBCHEM_SHAPE_SELFOVERLAP>
774.86

> <PUBCHEM_SHAPE_VOLUME>
207.4

> <PUBCHEM_COORDINATE_TYPE>
2
5
10

$$$$
