49830343
  -OEChem-10052115183D

 58 63  0     0  0  0  0  0  0999 V2000
   10.9634   -0.1819    1.7038 F   0  0  0  0  0  0  0  0  0  0  0  0
   11.8829   -0.7556   -0.1812 F   0  0  0  0  0  0  0  0  0  0  0  0
   10.7320   -2.2057    0.9593 F   0  0  0  0  0  0  0  0  0  0  0  0
   -8.7142   -2.6619   -1.4888 O   0  0  0  0  0  0  0  0  0  0  0  0
  -10.4006   -2.2647    0.1862 O   0  0  0  0  0  0  0  0  0  0  0  0
    4.4145    0.5168   -1.2984 O   0  0  0  0  0  0  0  0  0  0  0  0
   -3.9729    1.9154   -0.0386 N   0  0  0  0  0  0  0  0  0  0  0  0
   -4.7472    3.0138   -0.2764 N   0  0  0  0  0  0  0  0  0  0  0  0
   -4.2213   -0.4445    0.3668 N   0  0  0  0  0  0  0  0  0  0  0  0
   -1.9094    3.0543   -0.0965 N   0  0  0  0  0  0  0  0  0  0  0  0
    3.5901   -0.1551    0.7892 N   0  0  0  0  0  0  0  0  0  0  0  0
    5.8586   -0.2612    0.3684 N   0  0  0  0  0  0  0  0  0  0  0  0
   -6.0719    1.1794   -0.0365 C   0  0  0  0  0  0  0  0  0  0  0  0
   -4.7652    0.7756    0.1152 C   0  0  0  0  0  0  0  0  0  0  0  0
   -7.2045    0.3076    0.0491 C   0  0  0  0  0  0  0  0  0  0  0  0
   -2.5670    1.8629    0.0552 C   0  0  0  0  0  0  0  0  0  0  0  0
   -1.9821    0.6681    0.2939 C   0  0  0  0  0  0  0  0  0  0  0  0
   -0.5342    0.4541    0.4227 C   0  0  0  0  0  0  0  0  0  0  0  0
   -5.9973    2.5562   -0.2732 C   0  0  0  0  0  0  0  0  0  0  0  0
   -7.3223   -0.7650   -0.8382 C   0  0  0  0  0  0  0  0  0  0  0  0
   -8.4310   -1.5772   -0.7173 C   0  0  0  0  0  0  0  0  0  0  0  0
   -2.9282   -0.4794    0.4485 C   0  0  0  0  0  0  0  0  0  0  0  0
   -8.1886    0.5395    1.0262 C   0  0  0  0  0  0  0  0  0  0  0  0
   -9.3941   -1.3504    0.2392 C   0  0  0  0  0  0  0  0  0  0  0  0
   -9.3016   -0.2987    1.1274 C   0  0  0  0  0  0  0  0  0  0  0  0
   -0.0058   -0.0444    1.6134 C   0  0  0  0  0  0  0  0  0  0  0  0
    0.3121    0.7493   -0.6462 C   0  0  0  0  0  0  0  0  0  0  0  0
    2.2149    0.0478    0.6667 C   0  0  0  0  0  0  0  0  0  0  0  0
   -9.9633   -3.0927   -0.9106 C   0  0  0  0  0  0  0  0  0  0  0  0
    1.3687   -0.2476    1.7356 C   0  0  0  0  0  0  0  0  0  0  0  0
    1.6867    0.5462   -0.5242 C   0  0  0  0  0  0  0  0  0  0  0  0
    7.1257   -0.1775   -0.2555 C   0  0  0  0  0  0  0  0  0  0  0  0
    4.6067    0.0798   -0.1683 C   0  0  0  0  0  0  0  0  0  0  0  0
    9.5206   -0.4862   -0.1798 C   0  0  0  0  0  0  0  0  0  0  0  0
    8.2721   -0.5669    0.4370 C   0  0  0  0  0  0  0  0  0  0  0  0
    7.2277    0.2923   -1.5650 C   0  0  0  0  0  0  0  0  0  0  0  0
    9.6227   -0.0163   -1.4893 C   0  0  0  0  0  0  0  0  0  0  0  0
    8.4762    0.3729   -2.1817 C   0  0  0  0  0  0  0  0  0  0  0  0
   10.7471   -0.8991    0.5617 C   0  0  0  0  0  0  0  0  0  0  0  0
   -6.8026    3.2565   -0.4453 H   0  0  0  0  0  0  0  0  0  0  0  0
   -6.5793   -0.9617   -1.6047 H   0  0  0  0  0  0  0  0  0  0  0  0
   -2.4553   -1.4562    0.6472 H   0  0  0  0  0  0  0  0  0  0  0  0
   -8.0969    1.3731    1.7194 H   0  0  0  0  0  0  0  0  0  0  0  0
  -10.0623   -0.1237    1.8796 H   0  0  0  0  0  0  0  0  0  0  0  0
   -0.6504   -0.2767    2.4578 H   0  0  0  0  0  0  0  0  0  0  0  0
   -0.0820    1.1304   -1.5854 H   0  0  0  0  0  0  0  0  0  0  0  0
   -2.4376    3.9020   -0.2637 H   0  0  0  0  0  0  0  0  0  0  0  0
   -0.9029    3.1023   -0.0069 H   0  0  0  0  0  0  0  0  0  0  0  0
  -10.7340   -3.0789   -1.6898 H   0  0  0  0  0  0  0  0  0  0  0  0
   -9.8465   -4.1209   -0.5492 H   0  0  0  0  0  0  0  0  0  0  0  0
    1.7669   -0.6358    2.6696 H   0  0  0  0  0  0  0  0  0  0  0  0
    2.2734    0.7969   -1.3962 H   0  0  0  0  0  0  0  0  0  0  0  0
    3.8996   -0.5203    1.6865 H   0  0  0  0  0  0  0  0  0  0  0  0
    5.8656   -0.6132    1.3223 H   0  0  0  0  0  0  0  0  0  0  0  0
    8.1966   -0.9336    1.4582 H   0  0  0  0  0  0  0  0  0  0  0  0
    6.3898    0.6123   -2.1674 H   0  0  0  0  0  0  0  0  0  0  0  0
   10.5855    0.0549   -1.9876 H   0  0  0  0  0  0  0  0  0  0  0  0
    8.5569    0.7388   -3.2013 H   0  0  0  0  0  0  0  0  0  0  0  0
  1 39  1  0  0  0  0
  2 39  1  0  0  0  0
  3 39  1  0  0  0  0
  4 21  1  0  0  0  0
  4 29  1  0  0  0  0
  5 24  1  0  0  0  0
  5 29  1  0  0  0  0
  6 33  2  0  0  0  0
  7  8  1  0  0  0  0
  7 14  1  0  0  0  0
  7 16  1  0  0  0  0
  8 19  2  0  0  0  0
  9 14  1  0  0  0  0
  9 22  2  0  0  0  0
 10 16  1  0  0  0  0
 10 47  1  0  0  0  0
 10 48  1  0  0  0  0
 11 28  1  0  0  0  0
 11 33  1  0  0  0  0
 11 53  1  0  0  0  0
 12 32  1  0  0  0  0
 12 33  1  0  0  0  0
 12 54  1  0  0  0  0
 13 14  2  0  0  0  0
 13 15  1  0  0  0  0
 13 19  1  0  0  0  0
 15 20  2  0  0  0  0
 15 23  1  0  0  0  0
 16 17  2  0  0  0  0
 17 18  1  0  0  0  0
 17 22  1  0  0  0  0
 18 26  2  0  0  0  0
 18 27  1  0  0  0  0
 19 40  1  0  0  0  0
 20 21  1  0  0  0  0
 20 41  1  0  0  0  0
 21 24  2  0  0  0  0
 22 42  1  0  0  0  0
 23 25  2  0  0  0  0
 23 43  1  0  0  0  0
 24 25  1  0  0  0  0
 25 44  1  0  0  0  0
 26 30  1  0  0  0  0
 26 45  1  0  0  0  0
 27 31  2  0  0  0  0
 27 46  1  0  0  0  0
 28 30  2  0  0  0  0
 28 31  1  0  0  0  0
 29 49  1  0  0  0  0
 29 50  1  0  0  0  0
 30 51  1  0  0  0  0
 31 52  1  0  0  0  0
 32 35  1  0  0  0  0
 32 36  2  0  0  0  0
 34 35  2  0  0  0  0
 34 37  1  0  0  0  0
 34 39  1  0  0  0  0
 35 55  1  0  0  0  0
 36 38  1  0  0  0  0
 36 56  1  0  0  0  0
 37 38  2  0  0  0  0
 37 57  1  0  0  0  0
 38 58  1  0  0  0  0
M  END
> <PUBCHEM_COMPOUND_CID>
49830343

> <PUBCHEM_CONFORMER_RMSD>
1

> <PUBCHEM_CONFORMER_DIVERSEORDER>
1
60
28
64
78
4
20
62
71
11
34
26
13
30
23
52
75
17
3
51
81
27
5
61
58
37
70
33
63
7
59
25
6
2
29
10
82
32
18
65
22
31
79
80
14
43
35
76
55
56
42
57
15
9
45
16
24
49
21
77
74
50
54
40
67
19
68
36
39
8
53
69
73
72
41
12
44
66
48
46
47
38

> <PUBCHEM_MMFF94_PARTIAL_CHARGES>
56
1 -0.34
10 -0.9
11 -0.55
12 -0.55
13 -0.05
14 -0.03
15 0.05
16 0.07
17 -0.01
18 0.03
19 0.14
2 -0.34
20 -0.15
21 0.08
22 0.38
23 -0.15
24 0.08
25 -0.15
26 -0.15
27 -0.15
28 0.12
29 0.56
3 -0.34
30 -0.15
31 -0.15
32 0.12
33 0.69
34 -0.14
35 -0.15
36 -0.15
37 -0.15
38 -0.15
39 1.16
4 -0.36
40 0.15
41 0.15
42 0.06
43 0.15
44 0.15
45 0.15
46 0.15
47 0.4
48 0.4
5 -0.36
51 0.15
52 0.15
53 0.37
54 0.37
55 0.15
56 0.15
57 0.15
58 0.15
6 -0.57
7 0.6
8 -0.71
9 -0.58

> <PUBCHEM_EFFECTIVE_ROTOR_COUNT>
7.6

> <PUBCHEM_PHARMACOPHORE_FEATURES>
15
1 10 cation
1 10 donor
1 11 donor
1 12 donor
1 4 acceptor
1 5 acceptor
1 6 acceptor
1 8 acceptor
1 9 acceptor
5 4 5 21 24 29 rings
5 7 8 13 14 19 rings
6 15 20 21 23 24 25 rings
6 18 26 27 28 30 31 rings
6 32 34 35 36 37 38 rings
6 7 9 14 16 17 22 rings

> <PUBCHEM_HEAVY_ATOM_COUNT>
39

> <PUBCHEM_ATOM_DEF_STEREO_COUNT>
0

> <PUBCHEM_ATOM_UDEF_STEREO_COUNT>
0

> <PUBCHEM_BOND_DEF_STEREO_COUNT>
0

> <PUBCHEM_BOND_UDEF_STEREO_COUNT>
0

> <PUBCHEM_ISOTOPIC_ATOM_COUNT>
0

> <PUBCHEM_COMPONENT_COUNT>
1

> <PUBCHEM_CACTVS_TAUTO_COUNT>
15

> <PUBCHEM_CONFORMER_ID>
02F859C700000001

> <PUBCHEM_MMFF94_ENERGY>
117.3584

> <PUBCHEM_FEATURE_SELFOVERLAP>
76.457

> <PUBCHEM_SHAPE_FINGERPRINT>
10076449 9 18201442476050863793
10162869 55 17676206867105845798
10674148 151 17632857538137537731
11061554 47 8935011364972101203
11409948 35 12252166456858745848
12013929 2 11746934279483370280
12089408 11 18113623361507053940
12498461 61 18342453750953995111
12522641 33 7997972380152266128
12741549 16 17132116844567069001
14017579 151 17967538926826207374
14202775 3 18342461405361404238
14344974 52 18412262861916071392
15065858 18 18059853931789429652
15145343 6 17561083622204497120
15247644 1 18272654520500441622
15274700 232 18339646758863839039
15274700 256 18413668024595743448
15461852 350 18410295809179388813
15510794 2 17918274272971501162
15554971 5 17894638028754985748
16728433 110 16343699941658096952
1754911 235 16008748026112280559
1818759 1 16773802493284948726
20105231 36 18131349717428090043
21102433 48 18260824883302342522
21362267 20 18201717362327340023
21591340 7 17967816033968363400
21792965 68 10809336716733626975
21895431 317 18408602531540600126
232437 2 18410293606019304466
23378982 89 16519595255722187917
23528940 14 17774999138304120079
3092352 35 18040155111299169610
335352 9 17240489109179327164
335507 130 18341896294162953980
3525247 94 17603586322787975866
395649 100 17531253893819150755
3991529 128 9583524239936171703
42767 2 11963386353886576936
4339292 15 18343299292875921247
4353968 344 16877939421774886749
44280117 145 18410012105610978565
5028188 123 18342458132748681641
5381727 24 18259984860528461746
54039377 194 18410012170214063063
57676310 188 18333729092577278843
59521270 166 18408880708841764333
636775 8 18410293640795904159
636783 248 13039179330372939082
67123 10 18334577932469149888
9663363 56 16702302335216996521
9937071 3 16272215176251630558

> <PUBCHEM_SHAPE_MULTIPOLES>
733.29
47.59
2.26
1.37
64.36
0.19
-0.12
-30.04
-4.08
-7.68
-0.55
2.07
-0.24
-2.61

> <PUBCHEM_SHAPE_SELFOVERLAP>
1652.376

> <PUBCHEM_SHAPE_VOLUME>
385.5

> <PUBCHEM_COORDINATE_TYPE>
2
5
10

$$$$
