24905220
  -OEChem-10052115143D

 39 42  0     0  0  0  0  0  0999 V2000
   -0.4012    0.1594    2.9504 Cl  0  0  0  0  0  0  0  0  0  0  0  0
    2.6635    1.0304   -0.1734 N   0  0  0  0  0  0  0  0  0  0  0  0
    1.3790    1.3955   -0.0043 N   0  0  0  0  0  0  0  0  0  0  0  0
    4.0060   -0.9737   -0.3819 N   0  0  0  0  0  0  0  0  0  0  0  0
    2.6416   -2.9914   -0.2489 N   0  0  0  0  0  0  0  0  0  0  0  0
   -2.6345    0.1677    1.6741 N   0  0  0  0  0  0  0  0  0  0  0  0
    0.2743   -2.9302    0.0499 N   0  0  0  0  0  0  0  0  0  0  0  0
    3.6837    2.0460   -0.2826 C   0  0  0  0  0  0  0  0  0  0  0  0
    2.8443   -0.3199   -0.2226 C   0  0  0  0  0  0  0  0  0  0  0  0
    1.5873   -0.8794   -0.0747 C   0  0  0  0  0  0  0  0  0  0  0  0
    0.7287    0.2281    0.0551 C   0  0  0  0  0  0  0  0  0  0  0  0
   -0.6966    0.2131    0.2349 C   0  0  0  0  0  0  0  0  0  0  0  0
    3.7790    2.8875    0.9925 C   0  0  0  0  0  0  0  0  0  0  0  0
    3.4632    2.9362   -1.5081 C   0  0  0  0  0  0  0  0  0  0  0  0
    1.5071   -2.2679   -0.0916 C   0  0  0  0  0  0  0  0  0  0  0  0
   -1.5260    0.2291   -0.8771 C   0  0  0  0  0  0  0  0  0  0  0  0
   -2.9183    0.2145   -0.7185 C   0  0  0  0  0  0  0  0  0  0  0  0
   -1.2962    0.1826    1.4776 C   0  0  0  0  0  0  0  0  0  0  0  0
   -3.4369    0.1834    0.5930 C   0  0  0  0  0  0  0  0  0  0  0  0
    3.8040   -2.3091   -0.3823 C   0  0  0  0  0  0  0  0  0  0  0  0
   -3.7852    0.2300   -1.8243 C   0  0  0  0  0  0  0  0  0  0  0  0
   -4.8202    0.1688    0.7500 C   0  0  0  0  0  0  0  0  0  0  0  0
   -5.1645    0.2150   -1.6381 C   0  0  0  0  0  0  0  0  0  0  0  0
   -5.6823    0.1842   -0.3492 C   0  0  0  0  0  0  0  0  0  0  0  0
    4.6436    1.5322   -0.4139 H   0  0  0  0  0  0  0  0  0  0  0  0
    2.8629    3.4621    1.1684 H   0  0  0  0  0  0  0  0  0  0  0  0
    4.6123    3.5951    0.9272 H   0  0  0  0  0  0  0  0  0  0  0  0
    3.9451    2.2504    1.8683 H   0  0  0  0  0  0  0  0  0  0  0  0
    2.5349    3.5127   -1.4285 H   0  0  0  0  0  0  0  0  0  0  0  0
    3.4033    2.3340   -2.4215 H   0  0  0  0  0  0  0  0  0  0  0  0
    4.2900    3.6449   -1.6248 H   0  0  0  0  0  0  0  0  0  0  0  0
   -1.0967    0.2526   -1.8779 H   0  0  0  0  0  0  0  0  0  0  0  0
    4.6925   -2.9188   -0.5064 H   0  0  0  0  0  0  0  0  0  0  0  0
   -3.3904    0.2539   -2.8375 H   0  0  0  0  0  0  0  0  0  0  0  0
   -0.5876   -2.4181    0.1671 H   0  0  0  0  0  0  0  0  0  0  0  0
    0.2607   -3.9412    0.0312 H   0  0  0  0  0  0  0  0  0  0  0  0
   -5.2507    0.1447    1.7494 H   0  0  0  0  0  0  0  0  0  0  0  0
   -5.8313    0.2271   -2.4949 H   0  0  0  0  0  0  0  0  0  0  0  0
   -6.7573    0.1723   -0.1946 H   0  0  0  0  0  0  0  0  0  0  0  0
  1 18  1  0  0  0  0
  2  3  1  0  0  0  0
  2  8  1  0  0  0  0
  2  9  1  0  0  0  0
  3 11  2  0  0  0  0
  4  9  2  0  0  0  0
  4 20  1  0  0  0  0
  5 15  1  0  0  0  0
  5 20  2  0  0  0  0
  6 18  2  0  0  0  0
  6 19  1  0  0  0  0
  7 15  1  0  0  0  0
  7 35  1  0  0  0  0
  7 36  1  0  0  0  0
  8 13  1  0  0  0  0
  8 14  1  0  0  0  0
  8 25  1  0  0  0  0
  9 10  1  0  0  0  0
 10 11  1  0  0  0  0
 10 15  2  0  0  0  0
 11 12  1  0  0  0  0
 12 16  2  0  0  0  0
 12 18  1  0  0  0  0
 13 26  1  0  0  0  0
 13 27  1  0  0  0  0
 13 28  1  0  0  0  0
 14 29  1  0  0  0  0
 14 30  1  0  0  0  0
 14 31  1  0  0  0  0
 16 17  1  0  0  0  0
 16 32  1  0  0  0  0
 17 19  1  0  0  0  0
 17 21  2  0  0  0  0
 19 22  2  0  0  0  0
 20 33  1  0  0  0  0
 21 23  1  0  0  0  0
 21 34  1  0  0  0  0
 22 24  1  0  0  0  0
 22 37  1  0  0  0  0
 23 24  2  0  0  0  0
 23 38  1  0  0  0  0
 24 39  1  0  0  0  0
M  END
> <PUBCHEM_COMPOUND_CID>
24905220

> <PUBCHEM_CONFORMER_RMSD>
0.6

> <PUBCHEM_CONFORMER_DIVERSEORDER>
2
5
4
6
3
1

> <PUBCHEM_MMFF94_PARTIAL_CHARGES>
28
1 -0.18
11 0.23
12 0.05
15 0.41
16 -0.15
18 0.49
19 0.31
2 0.31
20 0.47
21 -0.15
22 -0.15
23 -0.15
24 -0.15
3 -0.71
32 0.15
33 0.15
34 0.15
35 0.4
36 0.4
37 0.15
38 0.15
39 0.15
4 -0.57
5 -0.62
6 -0.62
7 -0.9
8 0.26
9 0.11

> <PUBCHEM_EFFECTIVE_ROTOR_COUNT>
2

> <PUBCHEM_PHARMACOPHORE_FEATURES>
11
1 3 acceptor
1 6 acceptor
1 7 cation
1 7 donor
3 2 4 9 cation
3 4 5 20 cation
3 8 13 14 hydrophobe
5 2 3 9 10 11 rings
6 17 19 21 22 23 24 rings
6 4 5 9 10 15 20 rings
6 6 12 16 17 18 19 rings

> <PUBCHEM_HEAVY_ATOM_COUNT>
24

> <PUBCHEM_ATOM_DEF_STEREO_COUNT>
0

> <PUBCHEM_ATOM_UDEF_STEREO_COUNT>
0

> <PUBCHEM_BOND_DEF_STEREO_COUNT>
0

> <PUBCHEM_BOND_UDEF_STEREO_COUNT>
0

> <PUBCHEM_ISOTOPIC_ATOM_COUNT>
0

> <PUBCHEM_COMPONENT_COUNT>
1

> <PUBCHEM_CACTVS_TAUTO_COUNT>
5

> <PUBCHEM_CONFORMER_ID>
017C060400000002

> <PUBCHEM_MMFF94_ENERGY>
61.5263

> <PUBCHEM_FEATURE_SELFOVERLAP>
56.131

> <PUBCHEM_SHAPE_FINGERPRINT>
10366900 7 17895769386984772294
10930396 42 17971165103801511218
11582403 64 17680399407257334976
11725454 13 17749937989938204505
12166972 35 18129937880553571026
12236239 1 17703791383883240039
12403259 415 17676494942967450321
12616971 3 18060424582175893137
12730499 353 18336553814503130113
13009979 54 17272859701678923586
13140716 1 18338799035176166834
13631057 29 17841139271707424399
13911987 19 18120951747697257140
13955234 65 18411415107531548098
15375358 24 17748824146373761789
15842332 3 17631188410650494161
15961568 22 16733273459529891068
16752209 62 16558750075392553437
17138139 8 17557114480139746279
17818456 19 17271175211141750985
17844677 252 18336830797545735149
1813 80 17914347775199182814
18186145 218 17531531988461172977
200 152 18200592497622373299
20511986 3 17631997689963813505
20554085 129 17702368737024807192
20600515 1 15267046056822239339
20645477 70 18335140877563153410
21033648 29 17676482835486415325
21065201 7 16515692134564711875
21120745 212 11158280024305288930
2255824 54 18342462508750702590
23557571 272 17240495710253943227
23559900 14 16660369155976487574
238 59 18335426742249784626
266924 1 17774732977935217488
3004659 81 17703790284440132503
312423 11 18130518435256035505
4340502 62 18342171227893864314
46194498 28 18260544498708371607
469060 322 17758688032574532259
474 4 18270960258252747512
495365 180 18335137617967851584
5281201 14 18260546676046079773
6034566 193 17828494900382467244
633830 44 18057630752698873101
6669772 16 17967523593265478770
70251023 43 18268713809567184870
7471813 234 18059292050686883328
77492 1 17703796885699312691
8272917 22 18411986836239678445

> <PUBCHEM_SHAPE_MULTIPOLES>
465.89
10.26
2.77
1.74
9.05
0.63
0.99
-2.77
-3.25
-5.9
-0.53
1.3
-0.54
0.17

> <PUBCHEM_SHAPE_SELFOVERLAP>
1033.555

> <PUBCHEM_SHAPE_VOLUME>
247.8

> <PUBCHEM_COORDINATE_TYPE>
2
5
10

$$$$
