16220354
  -OEChem-10062122003D

 63 68  0     0  0  0  0  0  0999 V2000
   -2.3086   -2.0140   -1.6810 S   0  0  0  0  0  0  0  0  0  0  0  0
   -7.8540   -1.1968    0.3092 O   0  0  0  0  0  0  0  0  0  0  0  0
    7.5186   -0.3082   -0.1294 N   0  0  0  0  0  0  0  0  0  0  0  0
    9.1804   -2.3165    1.1210 N   0  0  0  0  0  0  0  0  0  0  0  0
    0.6689    2.8186    0.5409 N   0  0  0  0  0  0  0  0  0  0  0  0
   -0.5280    2.2253    0.2967 N   0  0  0  0  0  0  0  0  0  0  0  0
    8.7680   -0.7600   -0.7537 C   0  0  0  0  0  0  0  0  0  0  0  0
    7.6049   -0.4247    1.3314 C   0  0  0  0  0  0  0  0  0  0  0  0
    7.2082    1.0647   -0.5233 C   0  0  0  0  0  0  0  0  0  0  0  0
    9.0957   -2.1988   -0.3398 C   0  0  0  0  0  0  0  0  0  0  0  0
    7.9312   -1.8637    1.7452 C   0  0  0  0  0  0  0  0  0  0  0  0
    3.4495    0.8050   -0.5228 C   0  0  0  0  0  0  0  0  0  0  0  0
    5.7530    1.3918   -0.3179 C   0  0  0  0  0  0  0  0  0  0  0  0
    2.2193   -0.0471   -0.8911 C   0  0  0  0  0  0  0  0  0  0  0  0
    3.1133    2.0470    0.0858 C   0  0  0  0  0  0  0  0  0  0  0  0
    1.1811    0.9016   -0.3996 C   0  0  0  0  0  0  0  0  0  0  0  0
    1.6953    2.0497    0.1349 C   0  0  0  0  0  0  0  0  0  0  0  0
    4.7776    0.4749   -0.7262 C   0  0  0  0  0  0  0  0  0  0  0  0
    5.3989    2.6170    0.2833 C   0  0  0  0  0  0  0  0  0  0  0  0
    4.0611    2.9589    0.4927 C   0  0  0  0  0  0  0  0  0  0  0  0
   -0.2004    1.0528   -0.2791 C   0  0  0  0  0  0  0  0  0  0  0  0
    9.4890   -3.6900    1.5140 C   0  0  0  0  0  0  0  0  0  0  0  0
   -1.1788    0.0800   -0.7121 C   0  0  0  0  0  0  0  0  0  0  0  0
   -2.5812    0.2838   -0.5654 C   0  0  0  0  0  0  0  0  0  0  0  0
   -0.8912   -1.1302   -1.3042 C   0  0  0  0  0  0  0  0  0  0  0  0
   -3.3122   -0.7778   -1.0513 C   0  0  0  0  0  0  0  0  0  0  0  0
   -4.7342   -0.8606   -1.0408 C   0  0  0  0  0  0  0  0  0  0  0  0
   -5.9333   -0.9303   -1.0313 C   0  0  0  0  0  0  0  0  0  0  0  0
   -7.3932   -1.0155   -1.0222 C   0  0  0  0  0  0  0  0  0  0  0  0
   -9.0995   -0.7062    0.6051 C   0  0  0  0  0  0  0  0  0  0  0  0
  -10.0792   -0.6466   -0.3859 C   0  0  0  0  0  0  0  0  0  0  0  0
   -9.3867   -0.2657    1.8970 C   0  0  0  0  0  0  0  0  0  0  0  0
  -11.3462   -0.1465   -0.0851 C   0  0  0  0  0  0  0  0  0  0  0  0
  -10.6537    0.2342    2.1980 C   0  0  0  0  0  0  0  0  0  0  0  0
  -11.6334    0.2938    1.2069 C   0  0  0  0  0  0  0  0  0  0  0  0
    8.6696   -0.7338   -1.8459 H   0  0  0  0  0  0  0  0  0  0  0  0
    9.6017   -0.0975   -0.4840 H   0  0  0  0  0  0  0  0  0  0  0  0
    8.3695    0.2533    1.7351 H   0  0  0  0  0  0  0  0  0  0  0  0
    6.6510   -0.1510    1.7976 H   0  0  0  0  0  0  0  0  0  0  0  0
    7.8584    1.7819   -0.0051 H   0  0  0  0  0  0  0  0  0  0  0  0
    7.3955    1.2030   -1.5972 H   0  0  0  0  0  0  0  0  0  0  0  0
   10.0563   -2.4767   -0.7903 H   0  0  0  0  0  0  0  0  0  0  0  0
    8.3355   -2.8809   -0.7443 H   0  0  0  0  0  0  0  0  0  0  0  0
    7.0958   -2.5238    1.4744 H   0  0  0  0  0  0  0  0  0  0  0  0
    8.0307   -1.8944    2.8371 H   0  0  0  0  0  0  0  0  0  0  0  0
    2.2212   -0.9873   -0.3344 H   0  0  0  0  0  0  0  0  0  0  0  0
    2.1657   -0.1997   -1.9717 H   0  0  0  0  0  0  0  0  0  0  0  0
    5.0375   -0.4659   -1.2004 H   0  0  0  0  0  0  0  0  0  0  0  0
    6.1721    3.3165    0.5933 H   0  0  0  0  0  0  0  0  0  0  0  0
    3.7921    3.9013    0.9551 H   0  0  0  0  0  0  0  0  0  0  0  0
    9.5960   -3.7635    2.6020 H   0  0  0  0  0  0  0  0  0  0  0  0
   10.4446   -4.0077    1.0823 H   0  0  0  0  0  0  0  0  0  0  0  0
    8.7145   -4.3969    1.1952 H   0  0  0  0  0  0  0  0  0  0  0  0
    0.6786    3.7312    0.9805 H   0  0  0  0  0  0  0  0  0  0  0  0
   -3.0406    1.1625   -0.1266 H   0  0  0  0  0  0  0  0  0  0  0  0
    0.0672   -1.5644   -1.5465 H   0  0  0  0  0  0  0  0  0  0  0  0
   -7.7192   -1.8649   -1.6330 H   0  0  0  0  0  0  0  0  0  0  0  0
   -7.7784   -0.0872   -1.4637 H   0  0  0  0  0  0  0  0  0  0  0  0
   -9.9059   -1.0042   -1.3965 H   0  0  0  0  0  0  0  0  0  0  0  0
   -8.6273   -0.3095    2.6729 H   0  0  0  0  0  0  0  0  0  0  0  0
  -12.1114   -0.1057   -0.8548 H   0  0  0  0  0  0  0  0  0  0  0  0
  -10.8774    0.5768    3.2040 H   0  0  0  0  0  0  0  0  0  0  0  0
  -12.6203    0.6817    1.4416 H   0  0  0  0  0  0  0  0  0  0  0  0
  1 25  1  0  0  0  0
  1 26  1  0  0  0  0
  2 29  1  0  0  0  0
  2 30  1  0  0  0  0
  3  7  1  0  0  0  0
  3  8  1  0  0  0  0
  3  9  1  0  0  0  0
  4 10  1  0  0  0  0
  4 11  1  0  0  0  0
  4 22  1  0  0  0  0
  5  6  1  0  0  0  0
  5 17  1  0  0  0  0
  5 54  1  0  0  0  0
  6 21  2  0  0  0  0
  7 10  1  0  0  0  0
  7 36  1  0  0  0  0
  7 37  1  0  0  0  0
  8 11  1  0  0  0  0
  8 38  1  0  0  0  0
  8 39  1  0  0  0  0
  9 13  1  0  0  0  0
  9 40  1  0  0  0  0
  9 41  1  0  0  0  0
 10 42  1  0  0  0  0
 10 43  1  0  0  0  0
 11 44  1  0  0  0  0
 11 45  1  0  0  0  0
 12 14  1  0  0  0  0
 12 15  2  0  0  0  0
 12 18  1  0  0  0  0
 13 18  2  0  0  0  0
 13 19  1  0  0  0  0
 14 16  1  0  0  0  0
 14 46  1  0  0  0  0
 14 47  1  0  0  0  0
 15 17  1  0  0  0  0
 15 20  1  0  0  0  0
 16 17  2  0  0  0  0
 16 21  1  0  0  0  0
 18 48  1  0  0  0  0
 19 20  2  0  0  0  0
 19 49  1  0  0  0  0
 20 50  1  0  0  0  0
 21 23  1  0  0  0  0
 22 51  1  0  0  0  0
 22 52  1  0  0  0  0
 22 53  1  0  0  0  0
 23 24  1  0  0  0  0
 23 25  2  0  0  0  0
 24 26  2  0  0  0  0
 24 55  1  0  0  0  0
 25 56  1  0  0  0  0
 26 27  1  0  0  0  0
 27 28  3  0  0  0  0
 28 29  1  0  0  0  0
 29 57  1  0  0  0  0
 29 58  1  0  0  0  0
 30 31  2  0  0  0  0
 30 32  1  0  0  0  0
 31 33  1  0  0  0  0
 31 59  1  0  0  0  0
 32 34  2  0  0  0  0
 32 60  1  0  0  0  0
 33 35  2  0  0  0  0
 33 61  1  0  0  0  0
 34 35  1  0  0  0  0
 34 62  1  0  0  0  0
 35 63  1  0  0  0  0
M  END
> <PUBCHEM_COMPOUND_CID>
16220354

> <PUBCHEM_CONFORMER_RMSD>
1

> <PUBCHEM_CONFORMER_DIVERSEORDER>
1
97
103
160
113
154
78
34
136
118
51
94
111
120
102
139
73
38
121
107
165
123
134
112
93
43
144
115
124
59
166
162
90
127
95
149
135
8
56
130
116
153
157
72
141
45
55
31
158
125
40
104
83
163
133
67
41
35
151
88
42
15
150
164
5
114
148
99
3
58
79
10
86
122
6
106
168
131
57
27
156
147
16
70
60
77
66
25
64
50
128
69
46
126
32
143
37
110
108
105
101
119
19
14
129
30
159
137
138
80
7
17
142
39
24
28
75
100
63
155
26
89
29
169
2
82
98
74
18
65
11
140
62
91
132
47
146
36
49
20
52
76
117
84
161
12
68
145
81
21
44
22
167
92
4
33
48
85
54
61
109
13
23
71
96
53
87
152
9

> <PUBCHEM_MMFF94_PARTIAL_CHARGES>
45
1 -0.08
10 0.27
11 0.27
12 -0.14
13 -0.14
14 0.32
15 0.05
16 -0.18
17 -0.2
18 -0.15
19 -0.15
2 -0.36
20 -0.15
21 0.29
22 0.27
24 -0.15
25 -0.11
26 0.06
27 -0.02
28 -0.2
29 0.48
3 -0.81
30 0.08
31 -0.15
32 -0.15
33 -0.15
34 -0.15
35 -0.15
4 -0.81
48 0.15
49 0.15
5 0.3
50 0.15
54 0.27
55 0.15
56 0.15
59 0.15
6 -0.71
60 0.15
61 0.15
62 0.15
63 0.15
7 0.27
8 0.27
9 0.41

> <PUBCHEM_EFFECTIVE_ROTOR_COUNT>
6.4

> <PUBCHEM_PHARMACOPHORE_FEATURES>
11
1 2 acceptor
1 3 cation
1 4 cation
1 5 donor
1 6 acceptor
5 1 23 24 25 26 rings
5 12 14 15 16 17 rings
5 5 6 16 17 21 rings
6 12 13 15 18 19 20 rings
6 3 4 7 8 10 11 rings
6 30 31 32 33 34 35 rings

> <PUBCHEM_HEAVY_ATOM_COUNT>
35

> <PUBCHEM_ATOM_DEF_STEREO_COUNT>
0

> <PUBCHEM_ATOM_UDEF_STEREO_COUNT>
0

> <PUBCHEM_BOND_DEF_STEREO_COUNT>
0

> <PUBCHEM_BOND_UDEF_STEREO_COUNT>
0

> <PUBCHEM_ISOTOPIC_ATOM_COUNT>
0

> <PUBCHEM_COMPONENT_COUNT>
1

> <PUBCHEM_CACTVS_TAUTO_COUNT>
2

> <PUBCHEM_CONFORMER_ID>
00F780C200000001

> <PUBCHEM_MMFF94_ENERGY>
99.7942

> <PUBCHEM_FEATURE_SELFOVERLAP>
56.164

> <PUBCHEM_SHAPE_FINGERPRINT>
10076449 9 11746931011050285479
10168742 298 16298392327157977506
10209105 3 18335980887282755351
10533779 1 9511159869533644066
10533779 47 18333731316530794819
11443803 9 15913332386359849783
11456790 92 18060423547294555667
12089408 11 18130787910605603653
12559415 141 16370734708235486795
12559415 193 18271810086689536221
12838862 33 14836408030253312021
14142895 15 7997972370907391325
14344974 52 13542459878944922775
14359421 15 17604984829282020730
14395042 24 17846783992204853385
15219723 13 18333170553940100059
15289351 153 17703793614126411697
15419008 145 18272937094909288529
16758388 162 18130786789029016961
1818759 1 15574712513335559259
20105231 36 16225760818109015203
20982279 24 17822301153814534227
21057603 238 17751912524587052006
21130935 74 18055909041991184086
21362267 20 18261673796542461835
21362267 313 17632583729634693566
21781055 127 17489311875847533555
21792934 111 16702021989141418992
21927370 108 17675923201744074077
23389318 12 10737281355793602565
25269216 80 15647046036962188087
306946 40 13686294673490012675
397638 5 16558757823508547515
437795 160 15338831015189993847
439807 62 18335419084823892198
4403749 210 11239705431125373372
44389302 135 17989485200128208590
44426699 153 17676766453146243082
45377200 153 15864077598256007169
4756326 101 13902192565217703451
4760202 70 10953451930262606237
4874694 18 13110968630340518381
5104073 3 17846774119087935112
5381727 24 17917993919730627263
54583773 228 8214137456967353481
6057620 51 11170182164687328941
6201320 215 17917716752448112417
636783 126 16660374680253899433
636783 210 10447920642808096027
9937071 3 18113615690505208714
9980921 7 10592039168057164122

> <PUBCHEM_SHAPE_MULTIPOLES>
698.34
44.65
2.91
1.56
76.04
0.06
-0.58
-24.51
-22.25
-9.36
-0.82
1.5
-0.81
-3.79

> <PUBCHEM_SHAPE_SELFOVERLAP>
1526.045

> <PUBCHEM_SHAPE_VOLUME>
383.8

> <PUBCHEM_COORDINATE_TYPE>
2
5
10

$$$$
