24905239
  -OEChem-10052115163D

 39 42  0     0  0  0  0  0  0999 V2000
   -2.6617   -1.0351   -0.0098 N   0  0  0  0  0  0  0  0  0  0  0  0
   -1.3703   -1.4025    0.0854 N   0  0  0  0  0  0  0  0  0  0  0  0
   -4.0107    0.9713   -0.1390 N   0  0  0  0  0  0  0  0  0  0  0  0
    3.8898   -0.2361   -1.7254 N   0  0  0  0  0  0  0  0  0  0  0  0
   -2.6377    2.9867   -0.0815 N   0  0  0  0  0  0  0  0  0  0  0  0
    5.1191   -0.2168   -1.1840 N   0  0  0  0  0  0  0  0  0  0  0  0
   -0.2574    2.9214    0.0819 N   0  0  0  0  0  0  0  0  0  0  0  0
    5.8236   -0.1685    1.1037 N   0  0  0  0  0  0  0  0  0  0  0  0
   -3.6882   -2.0491   -0.0620 C   0  0  0  0  0  0  0  0  0  0  0  0
   -0.7159   -0.2362    0.1092 C   0  0  0  0  0  0  0  0  0  0  0  0
   -1.5787    0.8727    0.0299 C   0  0  0  0  0  0  0  0  0  0  0  0
   -2.8430    0.3155   -0.0469 C   0  0  0  0  0  0  0  0  0  0  0  0
    0.7179   -0.2236    0.2075 C   0  0  0  0  0  0  0  0  0  0  0  0
   -3.7121   -2.8922    1.2154 C   0  0  0  0  0  0  0  0  0  0  0  0
   -3.5392   -2.9380   -1.2991 C   0  0  0  0  0  0  0  0  0  0  0  0
    1.4847   -0.2397   -0.9621 C   0  0  0  0  0  0  0  0  0  0  0  0
    2.8728   -0.2265   -0.8092 C   0  0  0  0  0  0  0  0  0  0  0  0
   -1.4973    2.2612    0.0101 C   0  0  0  0  0  0  0  0  0  0  0  0
    3.4986   -0.1986    0.4320 C   0  0  0  0  0  0  0  0  0  0  0  0
    1.3205   -0.1957    1.4666 C   0  0  0  0  0  0  0  0  0  0  0  0
    2.7148   -0.1827    1.5978 C   0  0  0  0  0  0  0  0  0  0  0  0
    4.8772   -0.1939    0.1287 C   0  0  0  0  0  0  0  0  0  0  0  0
   -3.8069    2.3064   -0.1492 C   0  0  0  0  0  0  0  0  0  0  0  0
   -4.6532   -1.5336   -0.1377 H   0  0  0  0  0  0  0  0  0  0  0  0
   -3.8270   -2.2561    2.1001 H   0  0  0  0  0  0  0  0  0  0  0  0
   -4.5488   -3.5984    1.1967 H   0  0  0  0  0  0  0  0  0  0  0  0
   -2.7883   -3.4685    1.3380 H   0  0  0  0  0  0  0  0  0  0  0  0
   -3.5304   -2.3348   -2.2137 H   0  0  0  0  0  0  0  0  0  0  0  0
   -4.3725   -3.6453   -1.3694 H   0  0  0  0  0  0  0  0  0  0  0  0
   -2.6088   -3.5162   -1.2731 H   0  0  0  0  0  0  0  0  0  0  0  0
    1.0316   -0.2610   -1.9483 H   0  0  0  0  0  0  0  0  0  0  0  0
    0.7139   -0.1829    2.3702 H   0  0  0  0  0  0  0  0  0  0  0  0
    3.1680   -0.1607    2.5842 H   0  0  0  0  0  0  0  0  0  0  0  0
    3.8125   -0.2556   -2.7347 H   0  0  0  0  0  0  0  0  0  0  0  0
   -4.7001    2.9176   -0.2217 H   0  0  0  0  0  0  0  0  0  0  0  0
   -0.2432    3.9324    0.0645 H   0  0  0  0  0  0  0  0  0  0  0  0
    0.6088    2.4078    0.1507 H   0  0  0  0  0  0  0  0  0  0  0  0
    5.5993   -0.1513    2.0939 H   0  0  0  0  0  0  0  0  0  0  0  0
    6.8153   -0.1649    0.8864 H   0  0  0  0  0  0  0  0  0  0  0  0
  1  2  1  0  0  0  0
  1  9  1  0  0  0  0
  1 12  1  0  0  0  0
  2 10  2  0  0  0  0
  3 12  2  0  0  0  0
  3 23  1  0  0  0  0
  4  6  1  0  0  0  0
  4 17  1  0  0  0  0
  4 34  1  0  0  0  0
  5 18  1  0  0  0  0
  5 23  2  0  0  0  0
  6 22  2  0  0  0  0
  7 18  1  0  0  0  0
  7 36  1  0  0  0  0
  7 37  1  0  0  0  0
  8 22  1  0  0  0  0
  8 38  1  0  0  0  0
  8 39  1  0  0  0  0
  9 14  1  0  0  0  0
  9 15  1  0  0  0  0
  9 24  1  0  0  0  0
 10 11  1  0  0  0  0
 10 13  1  0  0  0  0
 11 12  1  0  0  0  0
 11 18  2  0  0  0  0
 13 16  2  0  0  0  0
 13 20  1  0  0  0  0
 14 25  1  0  0  0  0
 14 26  1  0  0  0  0
 14 27  1  0  0  0  0
 15 28  1  0  0  0  0
 15 29  1  0  0  0  0
 15 30  1  0  0  0  0
 16 17  1  0  0  0  0
 16 31  1  0  0  0  0
 17 19  2  0  0  0  0
 19 21  1  0  0  0  0
 19 22  1  0  0  0  0
 20 21  2  0  0  0  0
 20 32  1  0  0  0  0
 21 33  1  0  0  0  0
 23 35  1  0  0  0  0
M  END
> <PUBCHEM_COMPOUND_CID>
24905239

> <PUBCHEM_CONFORMER_RMSD>
0.6

> <PUBCHEM_CONFORMER_DIVERSEORDER>
2
5
4
3
6
1

> <PUBCHEM_MMFF94_PARTIAL_CHARGES>
28
1 0.31
10 0.23
12 0.11
13 0.05
16 -0.15
17 -0.15
18 0.41
2 -0.71
20 -0.15
21 -0.15
22 0.37
23 0.47
3 -0.57
31 0.15
32 0.15
33 0.15
34 0.27
35 0.15
36 0.4
37 0.4
38 0.4
39 0.4
4 0.3
5 -0.62
6 -0.71
7 -0.9
8 -0.88
9 0.26

> <PUBCHEM_EFFECTIVE_ROTOR_COUNT>
2

> <PUBCHEM_PHARMACOPHORE_FEATURES>
13
1 2 acceptor
1 4 donor
1 7 cation
1 7 donor
1 8 donor
3 1 3 12 cation
3 3 5 23 cation
3 6 8 22 cation
3 9 14 15 hydrophobe
5 1 2 10 11 12 rings
5 4 6 17 19 22 rings
6 13 16 17 19 20 21 rings
6 3 5 11 12 18 23 rings

> <PUBCHEM_HEAVY_ATOM_COUNT>
23

> <PUBCHEM_ATOM_DEF_STEREO_COUNT>
0

> <PUBCHEM_ATOM_UDEF_STEREO_COUNT>
0

> <PUBCHEM_BOND_DEF_STEREO_COUNT>
0

> <PUBCHEM_BOND_UDEF_STEREO_COUNT>
0

> <PUBCHEM_ISOTOPIC_ATOM_COUNT>
0

> <PUBCHEM_COMPONENT_COUNT>
1

> <PUBCHEM_CACTVS_TAUTO_COUNT>
33

> <PUBCHEM_CONFORMER_ID>
017C061700000002

> <PUBCHEM_MMFF94_ENERGY>
48.4962

> <PUBCHEM_FEATURE_SELFOVERLAP>
66.342

> <PUBCHEM_SHAPE_FINGERPRINT>
10319926 262 18269534110626079514
10369192 42 16984323958122435128
10411042 1 18194118745310550603
10498660 4 18267019453770428668
11315181 36 17894910763398992970
11370993 144 16988297403543734507
11796584 16 18199752445428501910
12107183 9 17612862709049110042
12173636 292 18050283670295381269
12236239 1 17675925369789362776
12390115 104 17984993592112727881
12553582 1 18264486364011799395
12616971 3 17095525067756024134
12714826 92 18272938245147763443
12788726 201 18042700557367674786
13140716 1 18338802333684682993
13583140 156 17989194929026183414
13760787 5 16153430541441148310
14386348 63 17704071781012953062
14790565 3 18051700936626273793
15099037 37 18341895216173745519
15842332 3 17749658589567679418
16087824 20 18410851029294263037
16752209 62 18335691776123633675
17349148 13 17167860868369226506
17357779 13 17986652939767957575
1813 80 18198913706554696935
18222031 100 18127124393449080303
18927931 339 18412266150774473406
19141452 34 17774728679327471559
200 152 17168140169633789450
20511986 3 17604137147600431060
20691752 17 17385717041218970148
21033648 29 17417798535442606178
21033650 10 18191894261488367876
21065201 7 18412544276235576242
21728266 224 18335408072153660154
21792961 116 17703518706080850134
2297311 6 18340218456614790758
23175994 123 17060622191702307200
23402539 116 18333729126482491502
23557571 272 18343865510935308376
23559900 14 18200035019800191742
314173 85 18270122439014069155
474 4 16950862353075957772
5104073 3 18411701019388902024
573450 72 18260541200252751962
6049 1 17846493768199866784
7471813 234 18191581054596942540
7495541 125 18059854017472270736
77492 1 17676204645821848288
7970288 3 18193276523177181739
9709674 26 18200317602224545062

> <PUBCHEM_SHAPE_MULTIPOLES>
433.48
10.33
2.92
1.25
10.32
0.71
0.02
-2.98
-0.53
-6.06
-0.1
1.04
-0.55
0.1

> <PUBCHEM_SHAPE_SELFOVERLAP>
973.545

> <PUBCHEM_SHAPE_VOLUME>
225.6

> <PUBCHEM_COORDINATE_TYPE>
2
5
10

$$$$
