16058637
  -OEChem-10062121573D

 39 41  0     0  0  0  0  0  0999 V2000
    1.5407   -3.0213    1.3038 O   0  0  0  0  0  0  0  0  0  0  0  0
   -4.9559    0.2952    0.7897 O   0  0  0  0  0  0  0  0  0  0  0  0
   -1.8362    1.2944   -0.2785 N   0  0  0  0  0  0  0  0  0  0  0  0
    2.8608    1.4830    0.2231 N   0  0  0  0  0  0  0  0  0  0  0  0
    0.5304    1.3675   -0.0242 N   0  0  0  0  0  0  0  0  0  0  0  0
    1.6745    3.4881   -0.0554 N   0  0  0  0  0  0  0  0  0  0  0  0
   -3.4181   -0.3455    2.3657 N   0  0  0  0  0  0  0  0  0  0  0  0
   -2.0506   -0.0570   -0.6303 C   0  0  0  0  0  0  0  0  0  0  0  0
   -3.0325   -0.8157    0.0064 C   0  0  0  0  0  0  0  0  0  0  0  0
   -0.6721    2.0071   -0.2034 C   0  0  0  0  0  0  0  0  0  0  0  0
   -1.2648   -0.6307   -1.6299 C   0  0  0  0  0  0  0  0  0  0  0  0
    3.1141    0.1204    0.2188 C   0  0  0  0  0  0  0  0  0  0  0  0
   -3.2288   -2.1483   -0.3563 C   0  0  0  0  0  0  0  0  0  0  0  0
    1.6277    2.1456    0.0387 C   0  0  0  0  0  0  0  0  0  0  0  0
   -1.4611   -1.9631   -1.9929 C   0  0  0  0  0  0  0  0  0  0  0  0
   -2.4431   -2.7219   -1.3561 C   0  0  0  0  0  0  0  0  0  0  0  0
   -0.7175    3.4056   -0.3118 C   0  0  0  0  0  0  0  0  0  0  0  0
    2.1904   -0.7873    0.7695 C   0  0  0  0  0  0  0  0  0  0  0  0
    4.3019   -0.3913   -0.3361 C   0  0  0  0  0  0  0  0  0  0  0  0
   -3.8699   -0.2456    1.0546 C   0  0  0  0  0  0  0  0  0  0  0  0
    2.4455   -2.1586    0.7653 C   0  0  0  0  0  0  0  0  0  0  0  0
    0.4790    4.0885   -0.2310 C   0  0  0  0  0  0  0  0  0  0  0  0
    4.5570   -1.7626   -0.3402 C   0  0  0  0  0  0  0  0  0  0  0  0
    3.6287   -2.6463    0.2105 C   0  0  0  0  0  0  0  0  0  0  0  0
   -2.6362    1.7447    0.1549 H   0  0  0  0  0  0  0  0  0  0  0  0
   -0.5035   -0.0584   -2.1533 H   0  0  0  0  0  0  0  0  0  0  0  0
   -3.9910   -2.7503    0.1321 H   0  0  0  0  0  0  0  0  0  0  0  0
    3.6662    2.0930    0.1368 H   0  0  0  0  0  0  0  0  0  0  0  0
   -0.8514   -2.4090   -2.7732 H   0  0  0  0  0  0  0  0  0  0  0  0
   -2.5963   -3.7592   -1.6391 H   0  0  0  0  0  0  0  0  0  0  0  0
   -1.6522    3.9367   -0.4544 H   0  0  0  0  0  0  0  0  0  0  0  0
    1.2842   -0.4510    1.2651 H   0  0  0  0  0  0  0  0  0  0  0  0
    5.0359    0.2840   -0.7702 H   0  0  0  0  0  0  0  0  0  0  0  0
    0.5105    5.1700   -0.3079 H   0  0  0  0  0  0  0  0  0  0  0  0
    5.4782   -2.1423   -0.7723 H   0  0  0  0  0  0  0  0  0  0  0  0
    3.8394   -3.7124    0.2011 H   0  0  0  0  0  0  0  0  0  0  0  0
   -2.5360   -0.7901    2.5996 H   0  0  0  0  0  0  0  0  0  0  0  0
   -3.9631    0.0284    3.1354 H   0  0  0  0  0  0  0  0  0  0  0  0
    1.8784   -3.9290    1.2137 H   0  0  0  0  0  0  0  0  0  0  0  0
  1 21  1  0  0  0  0
  1 39  1  0  0  0  0
  2 20  2  0  0  0  0
  3  8  1  0  0  0  0
  3 10  1  0  0  0  0
  3 25  1  0  0  0  0
  4 12  1  0  0  0  0
  4 14  1  0  0  0  0
  4 28  1  0  0  0  0
  5 10  2  0  0  0  0
  5 14  1  0  0  0  0
  6 14  2  0  0  0  0
  6 22  1  0  0  0  0
  7 20  1  0  0  0  0
  7 37  1  0  0  0  0
  7 38  1  0  0  0  0
  8  9  1  0  0  0  0
  8 11  2  0  0  0  0
  9 13  2  0  0  0  0
  9 20  1  0  0  0  0
 10 17  1  0  0  0  0
 11 15  1  0  0  0  0
 11 26  1  0  0  0  0
 12 18  2  0  0  0  0
 12 19  1  0  0  0  0
 13 16  1  0  0  0  0
 13 27  1  0  0  0  0
 15 16  2  0  0  0  0
 15 29  1  0  0  0  0
 16 30  1  0  0  0  0
 17 22  2  0  0  0  0
 17 31  1  0  0  0  0
 18 21  1  0  0  0  0
 18 32  1  0  0  0  0
 19 23  2  0  0  0  0
 19 33  1  0  0  0  0
 21 24  2  0  0  0  0
 22 34  1  0  0  0  0
 23 24  1  0  0  0  0
 23 35  1  0  0  0  0
 24 36  1  0  0  0  0
M  END
> <PUBCHEM_COMPOUND_CID>
16058637

> <PUBCHEM_CONFORMER_RMSD>
0.8

> <PUBCHEM_CONFORMER_DIVERSEORDER>
1
63
351
385
319
382
340
368
112
315
97
383
3
277
8
46
137
153
202
375
36
358
79
370
154
254
146
318
109
347
268
60
337
203
175
341
171
373
377
259
345
253
286
270
59
28
181
115
256
342
316
118
208
272
301
152
26
119
48
371
321
139
304
376
22
77
284
380
110
280
50
303
299
247
372
183
291
51
164
295
214
388
360
163
2
34
242
329
120
330
180
131
147
85
127
10
349
13
218
204
328
310
162
31
38
200
87
290
354
271
52
145
217
76
251
362
172
125
157
298
124
250
192
33
66
194
365
39
21
335
107
324
44
266
69
197
215
177
244
213
233
350
122
82
255
165
184
20
209
138
129
45
379
123
227
43
216
105
356
363
185
173
27
366
225
238
322
196
387
86
182
237
49
374
274
339
6
263
384
128
282
210
220
201
378
35
289
267
104
257
160
4
386
149
205
100
249
305
221
226
199
71
93
306
219
103
302
195
355
241
261
5
334
245
134
141
57
174
260
70
364
166
102
140
191
170
88
309
307
151
343
186
320
297
281
99
325
285
89
246
83
353
212
275
176
336
111
121
143
91
331
224
155
158
190
381
223
308
113
314
156
37
367
169
269
276
278
326
369
300
313
311
75
54
317
327
222
344
101
292
333
40
243
189
94
235
312
96
248
294
323
32
357
132
348
232
188
228
117
168
108
187
61
211
41
287
90
234
84
55
352
258
296
42
236
262
133
159
116
206
346
142
230
239
67
9
293
72
58
136
279
144
12
98
106
74
167
130
332
62
178
68
264
47
92
25
64
14
179
135
148
7
15
231
78
193
95
23
150
11
252
338
81
359
73
80
288
283
161
229
114
240
198
18
265
17
65
16
19
56
29
126
24
53
30
273
207
361

> <PUBCHEM_MMFF94_PARTIAL_CHARGES>
39
1 -0.53
10 0.41
11 -0.15
12 0.1
13 -0.15
14 0.72
15 -0.15
16 -0.15
17 -0.15
18 -0.15
19 -0.15
2 -0.57
20 0.54
21 0.08
22 0.16
23 -0.15
24 -0.15
25 0.4
26 0.15
27 0.15
28 0.4
29 0.15
3 -0.6
30 0.15
31 0.15
32 0.15
33 0.15
34 0.15
35 0.15
36 0.15
37 0.37
38 0.37
39 0.45
4 -0.6
5 -0.62
6 -0.62
7 -0.8
8 0.1
9 0.09

> <PUBCHEM_EFFECTIVE_ROTOR_COUNT>
5

> <PUBCHEM_PHARMACOPHORE_FEATURES>
9
1 1 donor
1 2 acceptor
1 3 donor
1 4 donor
1 7 donor
4 4 5 6 14 cation
6 12 18 19 21 23 24 rings
6 5 6 10 14 17 22 rings
6 8 9 11 13 15 16 rings

> <PUBCHEM_HEAVY_ATOM_COUNT>
24

> <PUBCHEM_ATOM_DEF_STEREO_COUNT>
0

> <PUBCHEM_ATOM_UDEF_STEREO_COUNT>
0

> <PUBCHEM_BOND_DEF_STEREO_COUNT>
0

> <PUBCHEM_BOND_UDEF_STEREO_COUNT>
0

> <PUBCHEM_ISOTOPIC_ATOM_COUNT>
0

> <PUBCHEM_COMPONENT_COUNT>
1

> <PUBCHEM_CACTVS_TAUTO_COUNT>
175

> <PUBCHEM_CONFORMER_ID>
00F5090D00000001

> <PUBCHEM_MMFF94_ENERGY>
97.4685

> <PUBCHEM_FEATURE_SELFOVERLAP>
45.672

> <PUBCHEM_SHAPE_FINGERPRINT>
10616163 171 17977664208814690054
11578080 2 17701507749951916465
11725454 13 13757800252677032985
12107183 9 18341906164815568609
12156800 1 16240472103194588891
12539773 59 17845655983611382099
12553582 1 18410001122672226870
12596599 1 18059308641897802974
12633257 1 17560797693552291382
12788726 201 18044933467840813081
13533116 47 18125157388953913871
13583140 156 18261398905601740043
138480 1 14737321807104498020
14178342 30 17839726398643083649
14279260 333 17972318409552537530
14844126 61 17976797815037409322
15537594 2 18411149047424467374
16110190 28 18272371966926724078
17349148 13 17632291320240934103
19930381 70 17903915904795128827
20291156 8 18411694383553399366
21427221 339 18129400313666672569
21796203 349 18190205510265081776
2255824 54 17904758130744307268
23598288 3 17974278824933543578
23598291 2 18200313363186431413
238 59 17613125865457721686
352729 6 17547281212370509548
392239 28 18338496630892128528
56633871 153 18272655610588294967
6287921 2 17984413315891527306
7097593 13 18270682107422370933

> <PUBCHEM_SHAPE_MULTIPOLES>
457.27
7.99
4.63
1.39
0.81
3.7
0.13
-5.24
1.83
1.67
-0.64
-1.38
-0.89
-1

> <PUBCHEM_SHAPE_SELFOVERLAP>
996.321

> <PUBCHEM_SHAPE_VOLUME>
244.6

> <PUBCHEM_COORDINATE_TYPE>
2
5
10

$$$$
