135398495
  -OEChem-10062122023D

 51 55  0     0  0  0  0  0  0999 V2000
    7.6644   -0.4248   -1.7404 O   0  0  0  0  0  0  0  0  0  0  0  0
   -6.1065    0.6425   -0.3240 O   0  0  0  0  0  0  0  0  0  0  0  0
   -5.3141   -1.4886    0.0821 N   0  0  0  0  0  0  0  0  0  0  0  0
    5.5295   -0.3039    0.1384 N   0  0  0  0  0  0  0  0  0  0  0  0
   -3.8010    0.2871    0.0220 N   0  0  0  0  0  0  0  0  0  0  0  0
    0.4806    1.6195    0.3786 N   0  0  0  0  0  0  0  0  0  0  0  0
   -0.7828   -0.2064    0.4762 N   0  0  0  0  0  0  0  0  0  0  0  0
   -1.8682    3.2314   -0.1522 N   0  0  0  0  0  0  0  0  0  0  0  0
   -3.0641    3.7985   -0.3853 N   0  0  0  0  0  0  0  0  0  0  0  0
   -6.5889   -2.1432    0.0127 C   0  0  0  0  0  0  0  0  0  0  0  0
   -7.1773   -2.5672   -1.3051 C   0  0  0  0  0  0  0  0  0  0  0  0
   -6.6986   -3.6031   -0.3323 C   0  0  0  0  0  0  0  0  0  0  0  0
   -5.1616   -0.1091   -0.0955 C   0  0  0  0  0  0  0  0  0  0  0  0
    6.9100    0.0228    0.5217 C   0  0  0  0  0  0  0  0  0  0  0  0
    5.5301   -1.2772   -0.9627 C   0  0  0  0  0  0  0  0  0  0  0  0
    4.7807   -0.8171    1.2838 C   0  0  0  0  0  0  0  0  0  0  0  0
    7.6744    0.5445   -0.6915 C   0  0  0  0  0  0  0  0  0  0  0  0
    6.3268   -0.7248   -2.1412 C   0  0  0  0  0  0  0  0  0  0  0  0
    3.2936   -0.7065    1.0764 C   0  0  0  0  0  0  0  0  0  0  0  0
    1.3468    0.5886    0.6382 C   0  0  0  0  0  0  0  0  0  0  0  0
    2.7291    0.5480    0.8231 C   0  0  0  0  0  0  0  0  0  0  0  0
   -3.2508    1.5416   -0.0870 C   0  0  0  0  0  0  0  0  0  0  0  0
    0.5341   -0.5402    0.6946 C   0  0  0  0  0  0  0  0  0  0  0  0
    2.5043   -1.8571    1.1393 C   0  0  0  0  0  0  0  0  0  0  0  0
   -1.9253    1.8812    0.0332 C   0  0  0  0  0  0  0  0  0  0  0  0
   -0.7787    1.0947    0.2912 C   0  0  0  0  0  0  0  0  0  0  0  0
    1.1181   -1.7924    0.9501 C   0  0  0  0  0  0  0  0  0  0  0  0
   -3.9047    2.7614   -0.3444 C   0  0  0  0  0  0  0  0  0  0  0  0
   -7.2806   -1.7781    0.7657 H   0  0  0  0  0  0  0  0  0  0  0  0
   -6.5933   -2.4136   -2.2044 H   0  0  0  0  0  0  0  0  0  0  0  0
   -8.2461   -2.4546   -1.4388 H   0  0  0  0  0  0  0  0  0  0  0  0
   -7.4453   -4.1898    0.1885 H   0  0  0  0  0  0  0  0  0  0  0  0
   -5.7940   -4.1451   -0.5794 H   0  0  0  0  0  0  0  0  0  0  0  0
   -4.4938   -2.0553    0.2766 H   0  0  0  0  0  0  0  0  0  0  0  0
    7.4148   -0.8681    0.9177 H   0  0  0  0  0  0  0  0  0  0  0  0
    6.9183    0.7936    1.3008 H   0  0  0  0  0  0  0  0  0  0  0  0
    4.5103   -1.4863   -1.3042 H   0  0  0  0  0  0  0  0  0  0  0  0
    5.9793   -2.2241   -0.6354 H   0  0  0  0  0  0  0  0  0  0  0  0
    5.0788   -1.8452    1.5297 H   0  0  0  0  0  0  0  0  0  0  0  0
    5.0043   -0.2224    2.1808 H   0  0  0  0  0  0  0  0  0  0  0  0
    8.7187    0.7317   -0.4218 H   0  0  0  0  0  0  0  0  0  0  0  0
    7.2530    1.4875   -1.0606 H   0  0  0  0  0  0  0  0  0  0  0  0
    5.8593    0.1749   -2.5597 H   0  0  0  0  0  0  0  0  0  0  0  0
    6.3789   -1.4724   -2.9391 H   0  0  0  0  0  0  0  0  0  0  0  0
   -3.1365   -0.4584    0.2131 H   0  0  0  0  0  0  0  0  0  0  0  0
    3.3273    1.4517    0.7769 H   0  0  0  0  0  0  0  0  0  0  0  0
    2.9575   -2.8261    1.3359 H   0  0  0  0  0  0  0  0  0  0  0  0
    0.7408    2.5913    0.2738 H   0  0  0  0  0  0  0  0  0  0  0  0
    0.5132   -2.6921    1.0004 H   0  0  0  0  0  0  0  0  0  0  0  0
   -4.9555    2.9538   -0.5057 H   0  0  0  0  0  0  0  0  0  0  0  0
   -1.0556    3.8354   -0.1350 H   0  0  0  0  0  0  0  0  0  0  0  0
  1 17  1  0  0  0  0
  1 18  1  0  0  0  0
  2 13  2  0  0  0  0
  3 10  1  0  0  0  0
  3 13  1  0  0  0  0
  3 34  1  0  0  0  0
  4 14  1  0  0  0  0
  4 15  1  0  0  0  0
  4 16  1  0  0  0  0
  5 13  1  0  0  0  0
  5 22  1  0  0  0  0
  5 45  1  0  0  0  0
  6 20  1  0  0  0  0
  6 26  1  0  0  0  0
  6 48  1  0  0  0  0
  7 23  1  0  0  0  0
  7 26  2  0  0  0  0
  8  9  1  0  0  0  0
  8 25  1  0  0  0  0
  8 51  1  0  0  0  0
  9 28  2  0  0  0  0
 10 11  1  0  0  0  0
 10 12  1  0  0  0  0
 10 29  1  0  0  0  0
 11 12  1  0  0  0  0
 11 30  1  0  0  0  0
 11 31  1  0  0  0  0
 12 32  1  0  0  0  0
 12 33  1  0  0  0  0
 14 17  1  0  0  0  0
 14 35  1  0  0  0  0
 14 36  1  0  0  0  0
 15 18  1  0  0  0  0
 15 37  1  0  0  0  0
 15 38  1  0  0  0  0
 16 19  1  0  0  0  0
 16 39  1  0  0  0  0
 16 40  1  0  0  0  0
 17 41  1  0  0  0  0
 17 42  1  0  0  0  0
 18 43  1  0  0  0  0
 18 44  1  0  0  0  0
 19 21  2  0  0  0  0
 19 24  1  0  0  0  0
 20 21  1  0  0  0  0
 20 23  2  0  0  0  0
 21 46  1  0  0  0  0
 22 25  2  0  0  0  0
 22 28  1  0  0  0  0
 23 27  1  0  0  0  0
 24 27  2  0  0  0  0
 24 47  1  0  0  0  0
 25 26  1  0  0  0  0
 27 49  1  0  0  0  0
 28 50  1  0  0  0  0
M  END
> <PUBCHEM_COMPOUND_CID>
135398495

> <PUBCHEM_CONFORMER_RMSD>
1

> <PUBCHEM_CONFORMER_DIVERSEORDER>
1
106
112
77
86
70
76
119
54
117
100
27
91
114
22
104
96
87
33
107
85
24
66
118
11
80
47
110
89
45
55
101
103
94
111
50
92
84
61
49
93
44
95
99
74
105
81
51
10
56
59
78
53
48
88
115
30
63
35
38
82
90
43
21
109
75
16
68
37
39
58
19
64
102
34
108
4
83
15
46
31
52
42
41
6
98
72
60
28
17
113
8
62
79
36
40
23
12
65
69
57
67
29
26
116
32
20
73
18
97
71
3
25
14
5
2
13
7
9

> <PUBCHEM_MMFF94_PARTIAL_CHARGES>
41
1 -0.56
10 0.05
11 -0.2
12 -0.2
13 0.69
14 0.27
15 0.27
16 0.41
17 0.28
18 0.28
19 -0.14
2 -0.57
20 -0.15
21 -0.15
22 0.06
23 0.23
24 -0.15
25 -0.15
26 0.19
27 -0.15
28 0.14
29 0.1
3 -0.58
30 0.1
31 0.1
32 0.1
33 0.1
34 0.37
4 -0.81
45 0.37
46 0.15
47 0.15
48 0.27
49 0.15
5 -0.49
50 0.15
51 0.27
6 0.03
7 -0.57
8 0.3
9 -0.71

> <PUBCHEM_EFFECTIVE_ROTOR_COUNT>
8.8

> <PUBCHEM_PHARMACOPHORE_FEATURES>
13
1 1 acceptor
1 2 acceptor
1 3 donor
1 4 cation
1 5 donor
1 6 donor
1 8 donor
1 9 acceptor
3 6 7 26 cation
5 6 7 20 23 26 rings
5 8 9 22 25 28 rings
6 1 4 14 15 17 18 rings
6 19 20 21 23 24 27 rings

> <PUBCHEM_HEAVY_ATOM_COUNT>
28

> <PUBCHEM_ATOM_DEF_STEREO_COUNT>
0

> <PUBCHEM_ATOM_UDEF_STEREO_COUNT>
0

> <PUBCHEM_BOND_DEF_STEREO_COUNT>
0

> <PUBCHEM_BOND_UDEF_STEREO_COUNT>
0

> <PUBCHEM_ISOTOPIC_ATOM_COUNT>
0

> <PUBCHEM_COMPONENT_COUNT>
1

> <PUBCHEM_CACTVS_TAUTO_COUNT>
-1

> <PUBCHEM_CONFORMER_ID>
0812045F00000001

> <PUBCHEM_MMFF94_ENERGY>
48.6476

> <PUBCHEM_FEATURE_SELFOVERLAP>
66.125

> <PUBCHEM_SHAPE_FINGERPRINT>
10411042 1 18337667650901847169
10591671 39 18409169900782597822
10595046 47 18187643553408438210
10815517 723 17702368732297596183
11315621 246 18411981343287717391
11497681 19 18200312246489880389
117089 54 18192435393272735203
11761917 116 18338514256811131407
11828042 200 18117004470736023299
11963148 33 18411408514578446175
11973863 73 14261083004784232478
12107183 9 10952046753906579202
12124843 1 17822557366585458623
12645989 146 18196368337685521967
13422730 43 18334285475561523442
13540713 5 17824812360914971379
1361 4 18340769252080478326
13631057 29 18410006633352482465
13668630 136 17846503629835259022
13673619 4 18131631218569880033
13690498 29 18342172267661098229
13782708 43 17988920072098125739
14068700 675 18334010618649997757
14117953 113 18342446081287078311
14347424 109 9871459899706042638
14528608 73 18187651246185637776
1454969 45 18186801383235811970
14556957 393 17023191496204774981
14747282 305 16559032679856506815
14767858 380 18040436602891110114
14856354 85 18337113457754513071
14931854 50 18040703789213662923
14955137 171 17704349974397864385
15021287 119 14476956787726536659
15250474 111 17971738996408371419
15350500 55 13190635983510136542
15361156 5 18187370905048528081
15392192 29 18335430097532054667
15400415 2 17689704269690724897
15461852 350 18409735037396657798
1577012 14 17895197641523871608
16087824 20 18263919944637711845
16989713 51 18342730832674528063
16991971 28 18339922744518118567
16992752 21 18410014351614558533
16993089 31 16988857046350895556
18608769 82 18342170098755588346
18681886 176 18335415798694376176
19427546 20 18261670373188976949
20105231 36 18201445774164215063
21054139 6 18186800266502299202
21133410 32 15503517022329102475
21150785 3 18113058242404782620
21223535 225 14996552946795109159
21267235 1 18338234968626297947
21344244 246 17970352739678838093
21362857 166 18411140208778191270
21774942 28 13334997383963454087
21796203 349 18045812163311908915
2297311 6 18272370849824205825
2303208 19 17703785895236704768
23081809 10 17749391404416771144
23424782 7 18273214227319952472
23522609 53 18116734923310462504
23559900 14 18337655448378345145
23569943 247 17840320917651284842
24771750 20 18055914544963460440
249057 25 17531523184115774664
255183 451 18341891956747651229
2747138 104 18338515343394769787
3004659 81 17968083258111743217
335352 9 18336538349565906045
3472631 163 17968674769982876636
34797466 226 18060701693941026520
397638 26 9295293837318408183
4258327 124 16081670957830148766
4339292 15 18201990032361708191
437795 160 18337095814598060626
4461854 278 18058738034667364911
44880168 125 17346874568148428783
46194498 28 18131350821989091560
49967989 163 18041574623185853683
5028188 123 18202010931619660220
504579 68 18334570222834270037
5381727 24 18334010598198359402
54039377 194 18260554467997969299
550186 72 18187645752237359524
6058803 2 17608358056606125992
6673363 416 18411428332390642804
6898599 12 18044651997655617549
7237137 82 18261109625836106829
9980921 7 16227188079519279134
999808 66 17346601876247261111

> <PUBCHEM_SHAPE_MULTIPOLES>
529.62
22.31
3.43
1.27
6.81
1.24
-0.44
-14.22
-9.82
-8.93
-0.53
2.42
-0.56
-0.48

> <PUBCHEM_SHAPE_SELFOVERLAP>
1151.546

> <PUBCHEM_SHAPE_VOLUME>
291.1

> <PUBCHEM_COORDINATE_TYPE>
2
5
10

$$$$
