16666093
  -OEChem-10052115193D

 44 47  0     1  0  0  0  0  0999 V2000
   -6.8348   -2.2404    0.2068 Cl  0  0  0  0  0  0  0  0  0  0  0  0
    0.5951    1.6606    0.9574 F   0  0  0  0  0  0  0  0  0  0  0  0
   -5.3484    2.8546   -0.1108 O   0  0  0  0  0  0  0  0  0  0  0  0
    6.9022   -0.4874    1.0973 N   0  0  0  0  0  0  0  0  0  0  0  0
   -1.6528   -1.6176    0.0166 N   0  0  0  0  0  0  0  0  0  0  0  0
   -1.7042    0.6010   -0.1079 N   0  0  0  0  0  0  0  0  0  0  0  0
   -3.0581    2.9277   -0.2003 N   0  0  0  0  0  0  0  0  0  0  0  0
    4.8172   -0.4771   -0.2476 C   0  0  1  0  0  0  0  0  0  0  0  0
    5.3662    0.6775   -1.1018 C   0  0  0  0  0  0  0  0  0  0  0  0
    5.4389   -0.4536    1.1610 C   0  0  0  0  0  0  0  0  0  0  0  0
    6.8930    0.6724   -1.0851 C   0  0  0  0  0  0  0  0  0  0  0  0
    7.4317    0.6492    0.3434 C   0  0  0  0  0  0  0  0  0  0  0  0
    3.3001   -0.4720   -0.2007 C   0  0  0  0  0  0  0  0  0  0  0  0
    2.6243    0.6094    0.3645 C   0  0  0  0  0  0  0  0  0  0  0  0
    2.5819   -1.5481   -0.7221 C   0  0  0  0  0  0  0  0  0  0  0  0
    0.5119   -0.4613   -0.1130 C   0  0  0  0  0  0  0  0  0  0  0  0
    1.2302    0.6147    0.4082 C   0  0  0  0  0  0  0  0  0  0  0  0
    1.1878   -1.5428   -0.6782 C   0  0  0  0  0  0  0  0  0  0  0  0
   -0.9300   -0.4604   -0.0707 C   0  0  0  0  0  0  0  0  0  0  0  0
   -2.9818   -1.2806    0.0368 C   0  0  0  0  0  0  0  0  0  0  0  0
   -2.9876    0.1094   -0.0422 C   0  0  0  0  0  0  0  0  0  0  0  0
   -4.2168    0.7901   -0.0451 C   0  0  0  0  0  0  0  0  0  0  0  0
   -4.1440   -2.0487    0.1149 C   0  0  0  0  0  0  0  0  0  0  0  0
   -5.3967    0.0394    0.0326 C   0  0  0  0  0  0  0  0  0  0  0  0
   -5.3587   -1.3548    0.1112 C   0  0  0  0  0  0  0  0  0  0  0  0
   -4.2666    2.2387   -0.1252 C   0  0  0  0  0  0  0  0  0  0  0  0
    5.1367   -1.4136   -0.7286 H   0  0  0  0  0  0  0  0  0  0  0  0
    5.0143    1.6460   -0.7253 H   0  0  0  0  0  0  0  0  0  0  0  0
    5.0069    0.5930   -2.1347 H   0  0  0  0  0  0  0  0  0  0  0  0
    5.1242    0.4309    1.7284 H   0  0  0  0  0  0  0  0  0  0  0  0
    5.0947   -1.3228    1.7343 H   0  0  0  0  0  0  0  0  0  0  0  0
    7.2616   -0.2038   -1.6335 H   0  0  0  0  0  0  0  0  0  0  0  0
    7.2704    1.5579   -1.6088 H   0  0  0  0  0  0  0  0  0  0  0  0
    8.5248    0.5810    0.3201 H   0  0  0  0  0  0  0  0  0  0  0  0
    7.1863    1.5853    0.8595 H   0  0  0  0  0  0  0  0  0  0  0  0
    7.1929   -1.3519    0.6399 H   0  0  0  0  0  0  0  0  0  0  0  0
    3.1628    1.4575    0.7777 H   0  0  0  0  0  0  0  0  0  0  0  0
    3.0937   -2.3965   -1.1683 H   0  0  0  0  0  0  0  0  0  0  0  0
    0.6592   -2.3910   -1.1059 H   0  0  0  0  0  0  0  0  0  0  0  0
   -1.2867   -2.5589    0.0722 H   0  0  0  0  0  0  0  0  0  0  0  0
   -4.0987   -3.1309    0.1755 H   0  0  0  0  0  0  0  0  0  0  0  0
   -6.3616    0.5435    0.0323 H   0  0  0  0  0  0  0  0  0  0  0  0
   -2.1496    2.4783   -0.2091 H   0  0  0  0  0  0  0  0  0  0  0  0
   -3.0519    3.9413   -0.2512 H   0  0  0  0  0  0  0  0  0  0  0  0
  1 25  1  0  0  0  0
  2 17  1  0  0  0  0
  3 26  2  0  0  0  0
  4 10  1  0  0  0  0
  4 12  1  0  0  0  0
  4 36  1  0  0  0  0
  5 19  1  0  0  0  0
  5 20  1  0  0  0  0
  5 40  1  0  0  0  0
  6 19  2  0  0  0  0
  6 21  1  0  0  0  0
  7 26  1  0  0  0  0
  7 43  1  0  0  0  0
  7 44  1  0  0  0  0
  8  9  1  0  0  0  0
  8 10  1  0  0  0  0
  8 13  1  0  0  0  0
  8 27  1  0  0  0  0
  9 11  1  0  0  0  0
  9 28  1  0  0  0  0
  9 29  1  0  0  0  0
 10 30  1  0  0  0  0
 10 31  1  0  0  0  0
 11 12  1  0  0  0  0
 11 32  1  0  0  0  0
 11 33  1  0  0  0  0
 12 34  1  0  0  0  0
 12 35  1  0  0  0  0
 13 14  2  0  0  0  0
 13 15  1  0  0  0  0
 14 17  1  0  0  0  0
 14 37  1  0  0  0  0
 15 18  2  0  0  0  0
 15 38  1  0  0  0  0
 16 17  2  0  0  0  0
 16 18  1  0  0  0  0
 16 19  1  0  0  0  0
 18 39  1  0  0  0  0
 20 21  1  0  0  0  0
 20 23  2  0  0  0  0
 21 22  2  0  0  0  0
 22 24  1  0  0  0  0
 22 26  1  0  0  0  0
 23 25  1  0  0  0  0
 23 41  1  0  0  0  0
 24 25  2  0  0  0  0
 24 42  1  0  0  0  0
M  END
> <PUBCHEM_COMPOUND_CID>
16666093

> <PUBCHEM_CONFORMER_RMSD>
0.8

> <PUBCHEM_CONFORMER_DIVERSEORDER>
2
26
15
51
32
47
23
31
49
14
22
10
20
53
36
19
35
28
34
50
44
29
7
30
13
39
52
24
16
33
46
40
41
4
45
5
38
48
27
11
37
17
25
21
18
1
42
8
12
43
3
9
6

> <PUBCHEM_MMFF94_PARTIAL_CHARGES>
33
1 -0.18
10 0.27
12 0.27
13 -0.14
14 -0.15
15 -0.15
16 0.05
17 0.19
18 -0.15
19 0.13
2 -0.19
20 -0.15
21 0.23
22 0.09
23 -0.15
24 -0.15
25 0.18
26 0.54
3 -0.57
36 0.36
37 0.15
38 0.15
39 0.15
4 -0.9
40 0.27
41 0.15
42 0.15
43 0.37
44 0.37
5 0.03
6 -0.57
7 -0.8
8 0.14

> <PUBCHEM_EFFECTIVE_ROTOR_COUNT>
4.2

> <PUBCHEM_PHARMACOPHORE_FEATURES>
10
1 3 acceptor
1 4 cation
1 4 donor
1 5 donor
1 7 donor
3 5 6 19 cation
5 5 6 19 20 21 rings
6 13 14 15 16 17 18 rings
6 20 21 22 23 24 25 rings
6 4 8 9 10 11 12 rings

> <PUBCHEM_HEAVY_ATOM_COUNT>
26

> <PUBCHEM_ATOM_DEF_STEREO_COUNT>
0

> <PUBCHEM_ATOM_UDEF_STEREO_COUNT>
1

> <PUBCHEM_BOND_DEF_STEREO_COUNT>
0

> <PUBCHEM_BOND_UDEF_STEREO_COUNT>
0

> <PUBCHEM_ISOTOPIC_ATOM_COUNT>
0

> <PUBCHEM_COMPONENT_COUNT>
1

> <PUBCHEM_CACTVS_TAUTO_COUNT>
7

> <PUBCHEM_CONFORMER_ID>
00FE4DED00000002

> <PUBCHEM_MMFF94_ENERGY>
52.6841

> <PUBCHEM_FEATURE_SELFOVERLAP>
50.854

> <PUBCHEM_SHAPE_FINGERPRINT>
10 15 18261119543390217169
10087517 78 18260829280541322693
10290309 65 18131076978600113183
10299344 5 18040996246252431202
10319926 262 18339909489578545963
10411042 1 18121781897210936811
10554248 39 18189322486120969166
10595046 47 18260267447416301154
10835480 77 18272084946762541108
11315181 36 17894912953689817623
11524674 6 16630531773474553031
11646440 116 17418099849037014770
11719270 70 18272368647144650414
11963148 33 18340763840543492158
12107183 9 17684641035206630658
12107698 1 18335983168189808497
12166972 35 18335142037489731740
12236239 1 17676486146536856974
12403259 415 17988636419578173768
12516196 113 17846782927221157890
13073987 5 18335983081990334523
13383668 251 16915355905235985187
13533116 47 17240475880991435394
14251764 18 18114180860856650626
14856354 85 18336272344017189495
15183329 4 18334298673632299572
15196674 1 18340207388526396815
15419008 47 17918270969561805328
1577012 14 18113340791160481156
16087824 20 18410009902988711069
16126227 98 18126573319592383953
17844677 252 18410578421974448616
17980427 23 18040443191217721958
18608769 82 18341334504357656395
18927931 339 18341331180400843407
19377110 9 17749103379456464096
20281389 69 18408603665221587968
21033648 29 17703492342400521241
21033650 10 18118996631433546428
21130935 74 18410008798064258538
21236236 1 18410575076590180525
21267235 1 18339367469723762059
21279426 13 18199191694049579582
21315759 40 17313383452376567666
21315763 129 18410574002600709508
21315763 28 18407759249007789750
21792961 116 17988648458867395806
2297311 6 18412268363341461327
23081809 10 17894352177037281934
23402539 116 18259700099126088654
23522609 53 17822876198828650492
23536379 177 17967812747922840570
23559900 14 18342731940570673529
23569914 152 15833971578055092764
23569943 247 15937794235139083554
249057 25 17676497167349118812
3004659 81 18334580106144893702
32027 91 17910681955776704382
335352 9 18410853275277049397
34797466 226 17846509175017931084
350125 39 18412548734348195985
3545911 37 18060703904841641311
3663271 9 18113051628271360770
4073 2 18260274027106174123
4214541 1 18411138013669320853
4325135 7 18334860549474761878
445580 37 18411147926464552324
5104073 3 18269559347078866243
5969126 39 18342730858956080095
6327066 14 18044368328399044085

> <PUBCHEM_SHAPE_MULTIPOLES>
503.87
19.42
2.35
0.88
15.58
1.25
0.02
-0.39
0.8
-5.02
-0.1
1.3
-0.02
0.06

> <PUBCHEM_SHAPE_SELFOVERLAP>
1105.464

> <PUBCHEM_SHAPE_VOLUME>
275

> <PUBCHEM_COORDINATE_TYPE>
2
5
10

$$$$
