22484544
  -OEChem-10052120443D

 39 42  0     0  0  0  0  0  0999 V2000
   -0.0782    1.6086    0.0498 N   0  0  0  0  0  0  0  0  0  0  0  0
   -2.4482    1.7912    0.0650 N   0  0  0  0  0  0  0  0  0  0  0  0
   -2.7131   -2.2387   -0.0488 N   0  0  0  0  0  0  0  0  0  0  0  0
   -3.9165   -0.1502    0.0153 N   0  0  0  0  0  0  0  0  0  0  0  0
    0.5798    1.8806    1.3329 C   0  0  0  0  0  0  0  0  0  0  0  0
    0.2509    2.5167   -1.0582 C   0  0  0  0  0  0  0  0  0  0  0  0
    2.0938    1.9775    1.1504 C   0  0  0  0  0  0  0  0  0  0  0  0
    1.7638    2.6081   -1.2454 C   0  0  0  0  0  0  0  0  0  0  0  0
    2.4653    2.9721    0.0576 C   0  0  0  0  0  0  0  0  0  0  0  0
   -1.3439    1.0098    0.0386 C   0  0  0  0  0  0  0  0  0  0  0  0
   -1.4839   -0.3768   -0.0004 C   0  0  0  0  0  0  0  0  0  0  0  0
   -0.6143   -1.4968   -0.0356 C   0  0  0  0  0  0  0  0  0  0  0  0
   -2.7823   -0.8715   -0.0095 C   0  0  0  0  0  0  0  0  0  0  0  0
   -1.3989   -2.6300   -0.0650 C   0  0  0  0  0  0  0  0  0  0  0  0
    0.8192   -1.5637   -0.0427 C   0  0  0  0  0  0  0  0  0  0  0  0
   -3.6497    1.1711    0.0520 C   0  0  0  0  0  0  0  0  0  0  0  0
    1.5114   -1.5620   -1.2537 C   0  0  0  0  0  0  0  0  0  0  0  0
    1.5203   -1.6304    1.1612 C   0  0  0  0  0  0  0  0  0  0  0  0
    2.9048   -1.6269   -1.2608 C   0  0  0  0  0  0  0  0  0  0  0  0
    2.9137   -1.6952    1.1543 C   0  0  0  0  0  0  0  0  0  0  0  0
    3.6059   -1.6935   -0.0568 C   0  0  0  0  0  0  0  0  0  0  0  0
    0.3592    1.0880    2.0576 H   0  0  0  0  0  0  0  0  0  0  0  0
    0.1892    2.8176    1.7487 H   0  0  0  0  0  0  0  0  0  0  0  0
   -0.1668    3.5104   -0.8548 H   0  0  0  0  0  0  0  0  0  0  0  0
   -0.1944    2.1562   -1.9939 H   0  0  0  0  0  0  0  0  0  0  0  0
    2.5051    1.0038    0.8826 H   0  0  0  0  0  0  0  0  0  0  0  0
    2.5603    2.2730    2.0966 H   0  0  0  0  0  0  0  0  0  0  0  0
    1.9965    3.3531   -2.0143 H   0  0  0  0  0  0  0  0  0  0  0  0
    2.1464    1.6450   -1.6052 H   0  0  0  0  0  0  0  0  0  0  0  0
    2.1779    3.9851    0.3639 H   0  0  0  0  0  0  0  0  0  0  0  0
    3.5507    2.9740   -0.0915 H   0  0  0  0  0  0  0  0  0  0  0  0
   -1.1461   -3.6814   -0.0959 H   0  0  0  0  0  0  0  0  0  0  0  0
   -3.5081   -2.8624   -0.0635 H   0  0  0  0  0  0  0  0  0  0  0  0
   -4.5144    1.8255    0.0739 H   0  0  0  0  0  0  0  0  0  0  0  0
    0.9804   -1.5081   -2.2012 H   0  0  0  0  0  0  0  0  0  0  0  0
    0.9965   -1.6312    2.1142 H   0  0  0  0  0  0  0  0  0  0  0  0
    3.4439   -1.6240   -2.2036 H   0  0  0  0  0  0  0  0  0  0  0  0
    3.4597   -1.7453    2.0917 H   0  0  0  0  0  0  0  0  0  0  0  0
    4.6908   -1.7426   -0.0622 H   0  0  0  0  0  0  0  0  0  0  0  0
  1  5  1  0  0  0  0
  1  6  1  0  0  0  0
  1 10  1  0  0  0  0
  2 10  2  0  0  0  0
  2 16  1  0  0  0  0
  3 13  1  0  0  0  0
  3 14  1  0  0  0  0
  3 33  1  0  0  0  0
  4 13  1  0  0  0  0
  4 16  2  0  0  0  0
  5  7  1  0  0  0  0
  5 22  1  0  0  0  0
  5 23  1  0  0  0  0
  6  8  1  0  0  0  0
  6 24  1  0  0  0  0
  6 25  1  0  0  0  0
  7  9  1  0  0  0  0
  7 26  1  0  0  0  0
  7 27  1  0  0  0  0
  8  9  1  0  0  0  0
  8 28  1  0  0  0  0
  8 29  1  0  0  0  0
  9 30  1  0  0  0  0
  9 31  1  0  0  0  0
 10 11  1  0  0  0  0
 11 12  1  0  0  0  0
 11 13  2  0  0  0  0
 12 14  2  0  0  0  0
 12 15  1  0  0  0  0
 14 32  1  0  0  0  0
 15 17  2  0  0  0  0
 15 18  1  0  0  0  0
 16 34  1  0  0  0  0
 17 19  1  0  0  0  0
 17 35  1  0  0  0  0
 18 20  2  0  0  0  0
 18 36  1  0  0  0  0
 19 21  2  0  0  0  0
 19 37  1  0  0  0  0
 20 21  1  0  0  0  0
 20 38  1  0  0  0  0
 21 39  1  0  0  0  0
M  END
> <PUBCHEM_COMPOUND_CID>
22484544

> <PUBCHEM_CONFORMER_RMSD>
0.6

> <PUBCHEM_CONFORMER_DIVERSEORDER>
1
2
3

> <PUBCHEM_MMFF94_PARTIAL_CHARGES>
25
1 -0.84
10 0.41
12 -0.05
13 0.11
14 -0.3
15 0.05
16 0.47
17 -0.15
18 -0.15
19 -0.15
2 -0.62
20 -0.15
21 -0.15
3 0.03
32 0.15
33 0.27
34 0.15
35 0.15
36 0.15
37 0.15
38 0.15
39 0.15
4 -0.57
5 0.37
6 0.37

> <PUBCHEM_EFFECTIVE_ROTOR_COUNT>
3.2

> <PUBCHEM_PHARMACOPHORE_FEATURES>
8
1 3 cation
1 3 donor
3 1 2 10 cation
3 2 4 16 cation
5 3 11 12 13 14 rings
6 1 5 6 7 8 9 rings
6 15 17 18 19 20 21 rings
6 2 4 10 11 13 16 rings

> <PUBCHEM_HEAVY_ATOM_COUNT>
21

> <PUBCHEM_ATOM_DEF_STEREO_COUNT>
0

> <PUBCHEM_ATOM_UDEF_STEREO_COUNT>
0

> <PUBCHEM_BOND_DEF_STEREO_COUNT>
0

> <PUBCHEM_BOND_UDEF_STEREO_COUNT>
0

> <PUBCHEM_ISOTOPIC_ATOM_COUNT>
0

> <PUBCHEM_COMPONENT_COUNT>
1

> <PUBCHEM_CACTVS_TAUTO_COUNT>
3

> <PUBCHEM_CONFORMER_ID>
0157164000000001

> <PUBCHEM_MMFF94_ENERGY>
58.2973

> <PUBCHEM_FEATURE_SELFOVERLAP>
40.83

> <PUBCHEM_SHAPE_FINGERPRINT>
10165383 225 16182731108839759100
10498660 4 17977107855487813646
10616163 171 18122342651264399456
10967382 1 18338796848494364017
1100329 8 18340211782747166329
11112241 14 16771800373501759024
11578080 2 17026524060388340012
11680986 33 18337673122041439843
12035758 1 17974268942525584209
12422481 6 18195498537971879504
12592029 89 17974295622655893209
13140716 1 18411143545787775499
14142880 1 17625255308352283137
14178342 30 18194959879683882249
14181834 199 18341035398133383821
14223421 5 18266741470543600779
14790565 3 17836099874498901320
14955137 171 17837524897629018145
1601671 61 17906457619623581241
16945 1 18268709403310592811
17357779 13 18127110988386196588
17492 54 18189918451614263780
19868273 325 18266180530492592070
20028762 73 16109256918207879486
20510252 161 17835520423412217922
20600515 1 18269835311728177282
20645476 183 16598712147152060876
20691752 17 17748820852080935739
20715895 44 16526088837223424709
20905425 154 18197787810589134126
21501502 16 18341327907224131419
2334 1 18339078319218305395
23366157 5 18114742749768273734
23402539 116 18126554622834379014
23419403 2 15825698014758269707
23557571 272 18056763122799218094
23559900 14 18055636119033383822
23566358 2 18266445693853484559
23728640 28 17114093925211326664
2748010 2 18409722976484808367
350125 39 18338525132248281105
352729 6 17253435011728228939
43471831 8 17976817915025028298
4409770 3 17467610625807597878
484985 159 15443741861614380626
5364581 5 16112315751404463592
589210 1 18340206409421292911
5939293 188 18412259502470677172
59755656 215 18050567640605639495
7364860 26 18343022237072229448
81228 2 17981903942435806706
84936 31 17060614508406591470
90316 7 17973427815950279530
90525 40 17758111888201833645
9925002 15 17412998235496614942

> <PUBCHEM_SHAPE_MULTIPOLES>
412.25
5.5
3.9
1.18
2.31
1.58
0
-1.27
-0.05
-1.88
0.3
-0.96
0.18
0.01

> <PUBCHEM_SHAPE_SELFOVERLAP>
911.571

> <PUBCHEM_SHAPE_VOLUME>
217.3

> <PUBCHEM_COORDINATE_TYPE>
2
5
10

$$$$
