71455860
  -OEChem-10052120443D

 53 56  0     0  0  0  0  0  0999 V2000
   -2.0397    4.1495    0.3449 O   0  0  0  0  0  0  0  0  0  0  0  0
   -4.4853    3.0255    1.7851 O   0  0  0  0  0  0  0  0  0  0  0  0
   -1.0770    1.2400   -0.6213 N   0  0  0  0  0  0  0  0  0  0  0  0
   -3.7707    0.0035    0.9656 N   0  0  0  0  0  0  0  0  0  0  0  0
   -2.0658   -1.5630    0.3870 N   0  0  0  0  0  0  0  0  0  0  0  0
   -0.4184   -3.1311   -0.1889 N   0  0  0  0  0  0  0  0  0  0  0  0
   -2.6625   -3.8156   -0.2270 N   0  0  0  0  0  0  0  0  0  0  0  0
    6.6358    1.4277    0.6333 N   0  0  0  0  0  0  0  0  0  0  0  0
   -0.8112    1.7130   -1.9682 C   0  0  0  0  0  0  0  0  0  0  0  0
   -2.1000    1.6474    0.0859 C   0  0  0  0  0  0  0  0  0  0  0  0
   -2.1484    2.0067   -2.6525 C   0  0  0  0  0  0  0  0  0  0  0  0
   -0.0512    0.6252   -2.7323 C   0  0  0  0  0  0  0  0  0  0  0  0
    0.0350    2.9866   -1.8861 C   0  0  0  0  0  0  0  0  0  0  0  0
   -3.1876    1.1474    0.7265 C   0  0  0  0  0  0  0  0  0  0  0  0
   -2.4336    3.0189    0.4639 C   0  0  0  0  0  0  0  0  0  0  0  0
   -3.6165    2.4751    1.1606 C   0  0  0  0  0  0  0  0  0  0  0  0
   -3.3783   -1.3013    0.5576 C   0  0  0  0  0  0  0  0  0  0  0  0
   -4.3778   -2.2317    0.3580 C   0  0  0  0  0  0  0  0  0  0  0  0
   -1.7829   -2.8213   -0.0004 C   0  0  0  0  0  0  0  0  0  0  0  0
    0.7585   -2.3714   -0.0521 C   0  0  0  0  0  0  0  0  0  0  0  0
    3.0903   -0.8644    0.2191 C   0  0  0  0  0  0  0  0  0  0  0  0
   -3.9568   -3.4849   -0.0376 C   0  0  0  0  0  0  0  0  0  0  0  0
    1.8697   -2.6572   -0.8454 C   0  0  0  0  0  0  0  0  0  0  0  0
    0.8131   -1.3323    0.8768 C   0  0  0  0  0  0  0  0  0  0  0  0
    3.0356   -1.9037   -0.7097 C   0  0  0  0  0  0  0  0  0  0  0  0
    1.9791   -0.5788    1.0124 C   0  0  0  0  0  0  0  0  0  0  0  0
    4.2999   -0.0831    0.3604 C   0  0  0  0  0  0  0  0  0  0  0  0
    5.5385   -0.6606    0.1044 C   0  0  0  0  0  0  0  0  0  0  0  0
    4.2278    1.2490    0.7525 C   0  0  0  0  0  0  0  0  0  0  0  0
    6.6663    0.1303    0.2541 C   0  0  0  0  0  0  0  0  0  0  0  0
    5.4141    1.9546    0.8733 C   0  0  0  0  0  0  0  0  0  0  0  0
   -0.7763    0.2758   -0.4945 H   0  0  0  0  0  0  0  0  0  0  0  0
   -1.9865    2.2490   -3.7101 H   0  0  0  0  0  0  0  0  0  0  0  0
   -2.8199    1.1400   -2.6226 H   0  0  0  0  0  0  0  0  0  0  0  0
   -2.6789    2.8634   -2.2242 H   0  0  0  0  0  0  0  0  0  0  0  0
    0.1615    0.9361   -3.7611 H   0  0  0  0  0  0  0  0  0  0  0  0
   -0.6271   -0.3068   -2.7764 H   0  0  0  0  0  0  0  0  0  0  0  0
    0.9051    0.3956   -2.2484 H   0  0  0  0  0  0  0  0  0  0  0  0
    0.3762    3.2884   -2.8834 H   0  0  0  0  0  0  0  0  0  0  0  0
    0.9248    2.8317   -1.2646 H   0  0  0  0  0  0  0  0  0  0  0  0
   -0.5112    3.8368   -1.4741 H   0  0  0  0  0  0  0  0  0  0  0  0
   -4.6282   -0.0199    1.5149 H   0  0  0  0  0  0  0  0  0  0  0  0
   -5.4283   -2.0090    0.4968 H   0  0  0  0  0  0  0  0  0  0  0  0
   -0.2823   -4.0460   -0.6084 H   0  0  0  0  0  0  0  0  0  0  0  0
   -4.6701   -4.2817   -0.2192 H   0  0  0  0  0  0  0  0  0  0  0  0
    1.8366   -3.4595   -1.5781 H   0  0  0  0  0  0  0  0  0  0  0  0
   -0.0083   -1.1088    1.5495 H   0  0  0  0  0  0  0  0  0  0  0  0
    3.8655   -2.1429   -1.3690 H   0  0  0  0  0  0  0  0  0  0  0  0
    1.9889    0.1958    1.7744 H   0  0  0  0  0  0  0  0  0  0  0  0
    5.6682   -1.6999   -0.1771 H   0  0  0  0  0  0  0  0  0  0  0  0
    3.2943    1.7687    0.9392 H   0  0  0  0  0  0  0  0  0  0  0  0
    7.6568   -0.2741    0.0736 H   0  0  0  0  0  0  0  0  0  0  0  0
    5.4122    2.9986    1.1690 H   0  0  0  0  0  0  0  0  0  0  0  0
  1 15  2  0  0  0  0
  2 16  2  0  0  0  0
  3  9  1  0  0  0  0
  3 10  1  0  0  0  0
  3 32  1  0  0  0  0
  4 14  1  0  0  0  0
  4 17  1  0  0  0  0
  4 42  1  0  0  0  0
  5 17  2  0  0  0  0
  5 19  1  0  0  0  0
  6 19  1  0  0  0  0
  6 20  1  0  0  0  0
  6 44  1  0  0  0  0
  7 19  2  0  0  0  0
  7 22  1  0  0  0  0
  8 30  2  0  0  0  0
  8 31  1  0  0  0  0
  9 11  1  0  0  0  0
  9 12  1  0  0  0  0
  9 13  1  0  0  0  0
 10 14  2  0  0  0  0
 10 15  1  0  0  0  0
 11 33  1  0  0  0  0
 11 34  1  0  0  0  0
 11 35  1  0  0  0  0
 12 36  1  0  0  0  0
 12 37  1  0  0  0  0
 12 38  1  0  0  0  0
 13 39  1  0  0  0  0
 13 40  1  0  0  0  0
 13 41  1  0  0  0  0
 14 16  1  0  0  0  0
 15 16  1  0  0  0  0
 17 18  1  0  0  0  0
 18 22  2  0  0  0  0
 18 43  1  0  0  0  0
 20 23  2  0  0  0  0
 20 24  1  0  0  0  0
 21 25  2  0  0  0  0
 21 26  1  0  0  0  0
 21 27  1  0  0  0  0
 22 45  1  0  0  0  0
 23 25  1  0  0  0  0
 23 46  1  0  0  0  0
 24 26  2  0  0  0  0
 24 47  1  0  0  0  0
 25 48  1  0  0  0  0
 26 49  1  0  0  0  0
 27 28  2  0  0  0  0
 27 29  1  0  0  0  0
 28 30  1  0  0  0  0
 28 50  1  0  0  0  0
 29 31  2  0  0  0  0
 29 51  1  0  0  0  0
 30 52  1  0  0  0  0
 31 53  1  0  0  0  0
M  END
> <PUBCHEM_COMPOUND_CID>
71455860

> <PUBCHEM_CONFORMER_RMSD>
1

> <PUBCHEM_CONFORMER_DIVERSEORDER>
1
94
71
99
7
123
88
120
126
21
97
63
84
104
111
41
33
61
76
2
117
47
110
67
62
130
23
73
57
103
53
20
65
49
66
100
58
108
92
132
127
6
125
105
48
95
3
25
90
115
69
113
31
74
16
70
12
128
131
87
14
59
36
96
75
81
79
32
109
77
39
102
9
86
78
11
114
83
68
43
91
107
64
121
34
38
22
17
50
44
98
4
112
55
118
101
89
52
60
13
27
15
93
56
8
72
54
40
85
82
119
26
35
18
42
5
30
122
24
46
45
29
10
37
133
124
19
28
51
106
80
116
129

> <PUBCHEM_MMFF94_PARTIAL_CHARGES>
39
1 -0.57
10 0.03
14 0.03
15 0.64
16 0.64
17 0.41
18 -0.15
19 0.72
2 -0.57
20 0.1
22 0.16
23 -0.15
24 -0.15
25 -0.15
26 -0.15
28 -0.15
29 -0.15
3 -0.87
30 0.16
31 0.16
32 0.4
4 -0.6
42 0.4
43 0.15
44 0.4
45 0.15
46 0.15
47 0.15
48 0.15
49 0.15
5 -0.62
50 0.15
51 0.15
52 0.15
53 0.15
6 -0.6
7 -0.62
8 -0.62
9 0.37

> <PUBCHEM_EFFECTIVE_ROTOR_COUNT>
7

> <PUBCHEM_PHARMACOPHORE_FEATURES>
13
1 1 acceptor
1 2 acceptor
1 3 cation
1 3 donor
1 4 donor
1 6 donor
1 8 acceptor
4 10 14 15 16 rings
4 5 6 7 19 cation
4 9 11 12 13 hydrophobe
6 20 21 23 24 25 26 rings
6 5 7 17 18 19 22 rings
6 8 27 28 29 30 31 rings

> <PUBCHEM_HEAVY_ATOM_COUNT>
31

> <PUBCHEM_ATOM_DEF_STEREO_COUNT>
0

> <PUBCHEM_ATOM_UDEF_STEREO_COUNT>
0

> <PUBCHEM_BOND_DEF_STEREO_COUNT>
0

> <PUBCHEM_BOND_UDEF_STEREO_COUNT>
0

> <PUBCHEM_ISOTOPIC_ATOM_COUNT>
0

> <PUBCHEM_COMPONENT_COUNT>
1

> <PUBCHEM_CACTVS_TAUTO_COUNT>
61

> <PUBCHEM_CONFORMER_ID>
0442547400000001

> <PUBCHEM_MMFF94_ENERGY>
118.5488

> <PUBCHEM_FEATURE_SELFOVERLAP>
65.972

> <PUBCHEM_SHAPE_FINGERPRINT>
10165383 225 17834133947655040831
10369192 42 17845375617363650268
10670039 82 18263375827518674054
11115154 58 17914869129111871647
11595378 159 17895739782165578610
12156800 1 18196964199270933660
12422481 6 17968104083912581780
133893 2 16590299612031524125
140371 6 18190753113773216055
14068700 675 18197211662776296495
14279260 333 17631178473088174870
14415360 78 17760080718511632412
14840074 17 17749685029259980229
14955137 171 17905329881191427539
15324884 4 17245840234349744685
15419008 145 18337938083607447968
18336668 15 18042964470687049743
19309040 13 17273986735172068513
21236236 1 18412543240963874250
21304303 282 14130712819602985125
21756936 100 18131340900519490960
21927370 108 17822861999170741418
238 59 16963485584086626599
24771293 8 18059307534877799363
25019877 29 17416698048847737870
3459 110 18408319982552533428
376196 1 15726672471371891837
392239 28 18339930414759665760
445580 44 17095512994413057958
469060 322 17095237034042681246
552612 73 18340498768626282846
6287921 2 18337125474813680454
6700243 42 17410251655387244470
7064713 232 18336557035792120188
7808743 9 18412825755106282706

> <PUBCHEM_SHAPE_MULTIPOLES>
596.34
11.89
5.05
1.73
19.1
0.2
1.33
-2.1
-5.01
-6.4
0.22
-1.03
-1.6
0.07

> <PUBCHEM_SHAPE_SELFOVERLAP>
1307.411

> <PUBCHEM_SHAPE_VOLUME>
317.4

> <PUBCHEM_COORDINATE_TYPE>
2
5
10

$$$$
