71553012
  -OEChem-10062121573D

 62 65  0     0  0  0  0  0  0999 V2000
   -4.1928   -1.1106   -2.7982 Cl  0  0  0  0  0  0  0  0  0  0  0  0
   -8.4092    0.4754    1.5144 Cl  0  0  0  0  0  0  0  0  0  0  0  0
    2.9259   -1.4427    2.7560 O   0  0  0  0  0  0  0  0  0  0  0  0
    6.2758   -1.0108   -1.7017 N   0  0  0  0  0  0  0  0  0  0  0  0
    1.2452    1.4079    0.9047 N   0  0  0  0  0  0  0  0  0  0  0  0
    3.5014   -0.5905    0.6778 N   0  0  0  0  0  0  0  0  0  0  0  0
   -0.7908    0.2397    0.5740 N   0  0  0  0  0  0  0  0  0  0  0  0
   -0.8999   -2.1404    0.9352 N   0  0  0  0  0  0  0  0  0  0  0  0
   -2.7953   -0.9369    0.2530 N   0  0  0  0  0  0  0  0  0  0  0  0
    0.6487    2.6764    0.5441 C   0  0  0  0  0  0  0  0  0  0  0  0
    0.6323    2.8537   -0.9692 C   0  0  0  0  0  0  0  0  0  0  0  0
    1.5232    3.8347    1.0080 C   0  0  0  0  0  0  0  0  0  0  0  0
    2.0403    3.3264   -1.3250 C   0  0  0  0  0  0  0  0  0  0  0  0
    2.6147    3.9507   -0.0536 C   0  0  0  0  0  0  0  0  0  0  0  0
    4.9328   -0.6053    0.8813 C   0  0  0  0  0  0  0  0  0  0  0  0
    5.5355   -1.9495    0.4663 C   0  0  0  0  0  0  0  0  0  0  0  0
    5.6109    0.5332    0.1157 C   0  0  0  0  0  0  0  0  0  0  0  0
    5.5663   -2.1231   -1.0555 C   0  0  0  0  0  0  0  0  0  0  0  0
    5.6389    0.2767   -1.3943 C   0  0  0  0  0  0  0  0  0  0  0  0
    0.5136    0.1943    0.9161 C   0  0  0  0  0  0  0  0  0  0  0  0
    6.3420   -1.2171   -3.1483 C   0  0  0  0  0  0  0  0  0  0  0  0
    1.1725   -0.9639    1.2745 C   0  0  0  0  0  0  0  0  0  0  0  0
    2.6093   -1.0172    1.6482 C   0  0  0  0  0  0  0  0  0  0  0  0
    0.4078   -2.1127    1.2661 C   0  0  0  0  0  0  0  0  0  0  0  0
   -1.4278   -0.9465    0.6046 C   0  0  0  0  0  0  0  0  0  0  0  0
   -3.4914    0.2544   -0.1201 C   0  0  0  0  0  0  0  0  0  0  0  0
   -4.9372   -0.0464   -0.4027 C   0  0  0  0  0  0  0  0  0  0  0  0
   -5.3391   -0.6607   -1.5888 C   0  0  0  0  0  0  0  0  0  0  0  0
   -5.8864    0.3049    0.5570 C   0  0  0  0  0  0  0  0  0  0  0  0
   -7.2375    0.0418    0.3308 C   0  0  0  0  0  0  0  0  0  0  0  0
   -6.6902   -0.9237   -1.8152 C   0  0  0  0  0  0  0  0  0  0  0  0
   -7.6393   -0.5723   -0.8554 C   0  0  0  0  0  0  0  0  0  0  0  0
   -0.3526    2.7689    0.9795 H   0  0  0  0  0  0  0  0  0  0  0  0
   -0.0871    3.6373   -1.2379 H   0  0  0  0  0  0  0  0  0  0  0  0
    0.3581    1.9492   -1.5212 H   0  0  0  0  0  0  0  0  0  0  0  0
    1.9430    3.6887    2.0085 H   0  0  0  0  0  0  0  0  0  0  0  0
    0.9345    4.7603    1.0217 H   0  0  0  0  0  0  0  0  0  0  0  0
    2.0222    4.0386   -2.1562 H   0  0  0  0  0  0  0  0  0  0  0  0
    2.6615    2.4777   -1.6344 H   0  0  0  0  0  0  0  0  0  0  0  0
    3.5123    3.4050    0.2579 H   0  0  0  0  0  0  0  0  0  0  0  0
    2.9067    4.9942   -0.2097 H   0  0  0  0  0  0  0  0  0  0  0  0
    5.1139   -0.4590    1.9533 H   0  0  0  0  0  0  0  0  0  0  0  0
    6.5619   -2.0143    0.8511 H   0  0  0  0  0  0  0  0  0  0  0  0
    4.9768   -2.7794    0.9156 H   0  0  0  0  0  0  0  0  0  0  0  0
    5.1023    1.4835    0.3150 H   0  0  0  0  0  0  0  0  0  0  0  0
    6.6421    0.6427    0.4765 H   0  0  0  0  0  0  0  0  0  0  0  0
    6.0788   -3.0670   -1.2782 H   0  0  0  0  0  0  0  0  0  0  0  0
    4.5424   -2.2127   -1.4415 H   0  0  0  0  0  0  0  0  0  0  0  0
    4.6220    0.3210   -1.8049 H   0  0  0  0  0  0  0  0  0  0  0  0
    6.2078    1.0893   -1.8630 H   0  0  0  0  0  0  0  0  0  0  0  0
    2.2550    1.3317    0.8499 H   0  0  0  0  0  0  0  0  0  0  0  0
    3.1438   -0.3206   -0.2340 H   0  0  0  0  0  0  0  0  0  0  0  0
    6.8623   -2.1531   -3.3801 H   0  0  0  0  0  0  0  0  0  0  0  0
    6.9145   -0.4141   -3.6257 H   0  0  0  0  0  0  0  0  0  0  0  0
    5.3475   -1.2521   -3.6076 H   0  0  0  0  0  0  0  0  0  0  0  0
    0.8298   -3.0775    1.5296 H   0  0  0  0  0  0  0  0  0  0  0  0
   -3.2710   -1.8319    0.2779 H   0  0  0  0  0  0  0  0  0  0  0  0
   -3.0317    0.7287   -0.9963 H   0  0  0  0  0  0  0  0  0  0  0  0
   -3.4214    0.9959    0.6866 H   0  0  0  0  0  0  0  0  0  0  0  0
   -5.5765    0.7817    1.4843 H   0  0  0  0  0  0  0  0  0  0  0  0
   -7.0195   -1.4019   -2.7342 H   0  0  0  0  0  0  0  0  0  0  0  0
   -8.6887   -0.7832   -1.0452 H   0  0  0  0  0  0  0  0  0  0  0  0
  1 28  1  0  0  0  0
  2 30  1  0  0  0  0
  3 23  2  0  0  0  0
  4 18  1  0  0  0  0
  4 19  1  0  0  0  0
  4 21  1  0  0  0  0
  5 10  1  0  0  0  0
  5 20  1  0  0  0  0
  5 51  1  0  0  0  0
  6 15  1  0  0  0  0
  6 23  1  0  0  0  0
  6 52  1  0  0  0  0
  7 20  2  0  0  0  0
  7 25  1  0  0  0  0
  8 24  1  0  0  0  0
  8 25  2  0  0  0  0
  9 25  1  0  0  0  0
  9 26  1  0  0  0  0
  9 57  1  0  0  0  0
 10 11  1  0  0  0  0
 10 12  1  0  0  0  0
 10 33  1  0  0  0  0
 11 13  1  0  0  0  0
 11 34  1  0  0  0  0
 11 35  1  0  0  0  0
 12 14  1  0  0  0  0
 12 36  1  0  0  0  0
 12 37  1  0  0  0  0
 13 14  1  0  0  0  0
 13 38  1  0  0  0  0
 13 39  1  0  0  0  0
 14 40  1  0  0  0  0
 14 41  1  0  0  0  0
 15 16  1  0  0  0  0
 15 17  1  0  0  0  0
 15 42  1  0  0  0  0
 16 18  1  0  0  0  0
 16 43  1  0  0  0  0
 16 44  1  0  0  0  0
 17 19  1  0  0  0  0
 17 45  1  0  0  0  0
 17 46  1  0  0  0  0
 18 47  1  0  0  0  0
 18 48  1  0  0  0  0
 19 49  1  0  0  0  0
 19 50  1  0  0  0  0
 20 22  1  0  0  0  0
 21 53  1  0  0  0  0
 21 54  1  0  0  0  0
 21 55  1  0  0  0  0
 22 23  1  0  0  0  0
 22 24  2  0  0  0  0
 24 56  1  0  0  0  0
 26 27  1  0  0  0  0
 26 58  1  0  0  0  0
 26 59  1  0  0  0  0
 27 28  2  0  0  0  0
 27 29  1  0  0  0  0
 28 31  1  0  0  0  0
 29 30  2  0  0  0  0
 29 60  1  0  0  0  0
 30 32  1  0  0  0  0
 31 32  2  0  0  0  0
 31 61  1  0  0  0  0
 32 62  1  0  0  0  0
M  END
> <PUBCHEM_COMPOUND_CID>
71553012

> <PUBCHEM_CONFORMER_RMSD>
1.2

> <PUBCHEM_CONFORMER_DIVERSEORDER>
1
102
40
106
86
81
65
56
30
70
113
88
111
121
59
71
75
122
117
114
85
17
61
120
103
109
100
90
69
87
41
93
48
43
23
39
112
66
77
89
91
115
29
52
83
31
92
78
26
20
51
18
62
79
21
15
80
72
3
74
104
11
123
118
116
42
67
34
105
44
119
84
33
47
38
76
13
49
36
99
82
24
46
54
58
14
60
27
22
32
97
45
57
64
96
16
25
63
37
5
9
53
68
98
8
55
19
7
110
50
6
108
107
95
101
10
2
35
4
73
94
28
12

> <PUBCHEM_MMFF94_PARTIAL_CHARGES>
33
1 -0.18
10 0.37
15 0.3
18 0.27
19 0.27
2 -0.18
20 0.41
21 0.27
22 0.09
23 0.54
24 0.16
25 0.72
26 0.51
27 -0.14
28 0.18
29 -0.15
3 -0.57
30 0.18
31 -0.15
32 -0.15
4 -0.81
5 -0.87
51 0.4
52 0.37
56 0.15
57 0.4
6 -0.73
60 0.15
61 0.15
62 0.15
7 -0.62
8 -0.62
9 -0.87

> <PUBCHEM_EFFECTIVE_ROTOR_COUNT>
10.2

> <PUBCHEM_PHARMACOPHORE_FEATURES>
10
1 3 acceptor
1 4 cation
1 5 donor
1 6 donor
1 9 donor
4 7 8 9 25 cation
5 10 11 12 13 14 rings
6 27 28 29 30 31 32 rings
6 4 15 16 17 18 19 rings
6 7 8 20 22 24 25 rings

> <PUBCHEM_HEAVY_ATOM_COUNT>
32

> <PUBCHEM_ATOM_DEF_STEREO_COUNT>
0

> <PUBCHEM_ATOM_UDEF_STEREO_COUNT>
0

> <PUBCHEM_BOND_DEF_STEREO_COUNT>
0

> <PUBCHEM_BOND_UDEF_STEREO_COUNT>
0

> <PUBCHEM_ISOTOPIC_ATOM_COUNT>
0

> <PUBCHEM_COMPONENT_COUNT>
1

> <PUBCHEM_CACTVS_TAUTO_COUNT>
21

> <PUBCHEM_CONFORMER_ID>
0443CFF400000001

> <PUBCHEM_MMFF94_ENERGY>
80.6735

> <PUBCHEM_FEATURE_SELFOVERLAP>
50.748

> <PUBCHEM_SHAPE_FINGERPRINT>
10673678 19 16298401170901360294
10675989 125 18189617327331985276
10816530 90 18040996302145476312
11115154 58 18060147534968230288
11331351 85 17917428692315871897
11719270 70 11095882674666445977
12166972 35 18131346423594324265
12422481 6 11600004353881978396
12596602 18 12901538023494574903
12616971 3 18343012321074093345
12717326 69 14260773083506047421
13540713 4 17972604556481904034
1361 2 18272650169207291070
13782708 43 16343696617021255967
13899415 154 18260550004413384929
14068700 675 18059853939419652416
14295343 760 17203061689608341453
14537116 161 18334574633343326028
14565420 104 11025797613389951748
14739800 52 12540959781771128687
14849402 71 18260833730607716345
14931854 50 18041011618219686116
15183329 4 18333732420316180350
15328829 1 18130795542767848241
15439362 3 18118122695921156660
15475509 8 18271814488165597514
16090146 7 17988657323527518539
16096371 109 10663821888445874036
16994733 274 14418140642402827790
19319366 153 17385711479231054730
19377110 9 7997701908648781967
19841028 212 16486700152467826526
20642791 239 17604730966132414728
21641784 216 17896038754601858252
21781055 127 16916524588298441715
21792961 116 17603584072066876698
22224240 67 8502366724384474107
23559900 14 18339633555521350371
23569943 247 17985828129638273723
23576562 1 18188209931099332807
24771293 8 18198603592831126360
24771750 20 17751939152819680444
3178227 256 18259706692560349563
3534868 343 17970344807364820210
4093350 32 17846497084453156880
437795 51 17894351103036956131
465052 167 14261351371177747050
5081480 168 18261099803261706141
552612 73 17386860576361101427

> <PUBCHEM_SHAPE_MULTIPOLES>
626.53
20.93
3.43
2.33
26.92
4.74
1.13
-8.61
7.53
-5.13
0.22
-1.2
-1.2
-0.92

> <PUBCHEM_SHAPE_SELFOVERLAP>
1306.366

> <PUBCHEM_SHAPE_VOLUME>
355.4

> <PUBCHEM_COORDINATE_TYPE>
2
5
10

$$$$
