46871637
  -OEChem-10052115143D

 61 65  0     1  0  0  0  0  0999 V2000
    5.2063    1.6126   -3.4083 Cl  0  0  0  0  0  0  0  0  0  0  0  0
    1.1799    4.0638    1.2583 F   0  0  0  0  0  0  0  0  0  0  0  0
    0.8758    1.9486    1.6597 F   0  0  0  0  0  0  0  0  0  0  0  0
    2.5521    2.9902    2.5592 F   0  0  0  0  0  0  0  0  0  0  0  0
   -5.0555   -0.1382   -0.1453 N   0  0  0  0  0  0  0  0  0  0  0  0
   -7.6549    1.0118   -0.4275 N   0  0  0  0  0  0  0  0  0  0  0  0
    3.6058   -0.9564    0.8404 N   0  0  1  0  0  0  0  0  0  0  0  0
    4.0134   -3.6218    0.0459 N   0  0  0  0  0  0  0  0  0  0  0  0
   -2.7250    0.2338   -0.3329 N   0  0  0  0  0  0  0  0  0  0  0  0
    1.7036   -3.9123   -0.3013 N   0  0  0  0  0  0  0  0  0  0  0  0
   -5.2863    1.2615    0.2336 C   0  0  0  0  0  0  0  0  0  0  0  0
   -6.0056   -0.6990   -1.1107 C   0  0  0  0  0  0  0  0  0  0  0  0
   -6.7487    1.4760    0.6303 C   0  0  0  0  0  0  0  0  0  0  0  0
   -7.4453   -0.4205   -0.6715 C   0  0  0  0  0  0  0  0  0  0  0  0
    4.8591   -1.6397    1.1562 C   0  0  0  0  0  0  0  0  0  0  0  0
    2.5260   -1.7503    0.4537 C   0  0  0  0  0  0  0  0  0  0  0  0
   -3.7439   -0.6238   -0.1001 C   0  0  0  0  0  0  0  0  0  0  0  0
    5.1409   -2.7220    0.1243 C   0  0  0  0  0  0  0  0  0  0  0  0
    3.4200    0.4036    1.3192 C   0  0  0  0  0  0  0  0  0  0  0  0
    2.7259   -3.0926    0.0620 C   0  0  0  0  0  0  0  0  0  0  0  0
   -9.0467    1.2715   -0.0610 C   0  0  0  0  0  0  0  0  0  0  0  0
    1.2048   -1.2773    0.4144 C   0  0  0  0  0  0  0  0  0  0  0  0
    0.1547   -2.1048    0.0330 C   0  0  0  0  0  0  0  0  0  0  0  0
    3.4353    1.3737    0.1705 C   0  0  0  0  0  0  0  0  0  0  0  0
   -1.2038   -1.6168   -0.0072 C   0  0  0  0  0  0  0  0  0  0  0  0
   -3.5755   -1.9700    0.1815 C   0  0  0  0  0  0  0  0  0  0  0  0
   -2.2780   -2.4681    0.2270 C   0  0  0  0  0  0  0  0  0  0  0  0
    0.4543   -3.4052   -0.3087 C   0  0  0  0  0  0  0  0  0  0  0  0
   -1.4783   -0.2864   -0.2803 C   0  0  0  0  0  0  0  0  0  0  0  0
    2.6835    2.5481    0.2121 C   0  0  0  0  0  0  0  0  0  0  0  0
    4.2158    1.0846   -0.9489 C   0  0  0  0  0  0  0  0  0  0  0  0
    2.7122    3.4330   -0.8658 C   0  0  0  0  0  0  0  0  0  0  0  0
    1.8404    2.8787    1.3997 C   0  0  0  0  0  0  0  0  0  0  0  0
    4.2447    1.9697   -2.0265 C   0  0  0  0  0  0  0  0  0  0  0  0
    3.4928    3.1441   -1.9850 C   0  0  0  0  0  0  0  0  0  0  0  0
   -4.6555    1.5387    1.0876 H   0  0  0  0  0  0  0  0  0  0  0  0
   -5.0214    1.9185   -0.6048 H   0  0  0  0  0  0  0  0  0  0  0  0
   -5.8196   -0.2556   -2.0975 H   0  0  0  0  0  0  0  0  0  0  0  0
   -5.8845   -1.7830   -1.2177 H   0  0  0  0  0  0  0  0  0  0  0  0
   -6.9009    2.5468    0.8122 H   0  0  0  0  0  0  0  0  0  0  0  0
   -6.9537    0.9520    1.5738 H   0  0  0  0  0  0  0  0  0  0  0  0
   -8.1184   -0.7678   -1.4648 H   0  0  0  0  0  0  0  0  0  0  0  0
   -7.6733   -1.0054    0.2299 H   0  0  0  0  0  0  0  0  0  0  0  0
    4.7878   -2.0773    2.1603 H   0  0  0  0  0  0  0  0  0  0  0  0
    5.6959   -0.9314    1.1682 H   0  0  0  0  0  0  0  0  0  0  0  0
    6.0404   -3.2821    0.4001 H   0  0  0  0  0  0  0  0  0  0  0  0
    5.3197   -2.2769   -0.8617 H   0  0  0  0  0  0  0  0  0  0  0  0
    2.5421    0.4684    1.9656 H   0  0  0  0  0  0  0  0  0  0  0  0
    4.2587    0.6837    1.9719 H   0  0  0  0  0  0  0  0  0  0  0  0
   -9.3394    0.7490    0.8570 H   0  0  0  0  0  0  0  0  0  0  0  0
   -9.2113    2.3448    0.0858 H   0  0  0  0  0  0  0  0  0  0  0  0
   -9.7207    0.9582   -0.8660 H   0  0  0  0  0  0  0  0  0  0  0  0
    4.1405   -4.5782   -0.2603 H   0  0  0  0  0  0  0  0  0  0  0  0
    0.9935   -0.2556    0.7062 H   0  0  0  0  0  0  0  0  0  0  0  0
   -4.4119   -2.6309    0.3844 H   0  0  0  0  0  0  0  0  0  0  0  0
   -2.1458   -3.5177    0.4746 H   0  0  0  0  0  0  0  0  0  0  0  0
   -0.2941   -4.1184   -0.6391 H   0  0  0  0  0  0  0  0  0  0  0  0
   -0.7050    0.4425   -0.5020 H   0  0  0  0  0  0  0  0  0  0  0  0
    4.8282    0.1900   -1.0021 H   0  0  0  0  0  0  0  0  0  0  0  0
    2.1348    4.3532   -0.8560 H   0  0  0  0  0  0  0  0  0  0  0  0
    3.5055    3.8427   -2.8177 H   0  0  0  0  0  0  0  0  0  0  0  0
  1 34  1  0  0  0  0
  2 33  1  0  0  0  0
  3 33  1  0  0  0  0
  4 33  1  0  0  0  0
  5 11  1  0  0  0  0
  5 12  1  0  0  0  0
  5 17  1  0  0  0  0
  6 13  1  0  0  0  0
  6 14  1  0  0  0  0
  6 21  1  0  0  0  0
  7 15  1  0  0  0  0
  7 16  1  0  0  0  0
  7 19  1  0  0  0  0
  8 18  1  0  0  0  0
  8 20  1  0  0  0  0
  8 53  1  0  0  0  0
  9 17  2  0  0  0  0
  9 29  1  0  0  0  0
 10 20  1  0  0  0  0
 10 28  2  0  0  0  0
 11 13  1  0  0  0  0
 11 36  1  0  0  0  0
 11 37  1  0  0  0  0
 12 14  1  0  0  0  0
 12 38  1  0  0  0  0
 12 39  1  0  0  0  0
 13 40  1  0  0  0  0
 13 41  1  0  0  0  0
 14 42  1  0  0  0  0
 14 43  1  0  0  0  0
 15 18  1  0  0  0  0
 15 44  1  0  0  0  0
 15 45  1  0  0  0  0
 16 20  2  0  0  0  0
 16 22  1  0  0  0  0
 17 26  1  0  0  0  0
 18 46  1  0  0  0  0
 18 47  1  0  0  0  0
 19 24  1  0  0  0  0
 19 48  1  0  0  0  0
 19 49  1  0  0  0  0
 21 50  1  0  0  0  0
 21 51  1  0  0  0  0
 21 52  1  0  0  0  0
 22 23  2  0  0  0  0
 22 54  1  0  0  0  0
 23 25  1  0  0  0  0
 23 28  1  0  0  0  0
 24 30  2  0  0  0  0
 24 31  1  0  0  0  0
 25 27  1  0  0  0  0
 25 29  2  0  0  0  0
 26 27  2  0  0  0  0
 26 55  1  0  0  0  0
 27 56  1  0  0  0  0
 28 57  1  0  0  0  0
 29 58  1  0  0  0  0
 30 32  1  0  0  0  0
 30 33  1  0  0  0  0
 31 34  2  0  0  0  0
 31 59  1  0  0  0  0
 32 35  2  0  0  0  0
 32 60  1  0  0  0  0
 34 35  1  0  0  0  0
 35 61  1  0  0  0  0
M  END
> <PUBCHEM_COMPOUND_CID>
46871637

> <PUBCHEM_CONFORMER_RMSD>
1

> <PUBCHEM_CONFORMER_DIVERSEORDER>
5
42
47
27
8
36
11
17
39
9
43
29
44
32
20
1
49
6
33
19
18
15
3
30
2
12
38
7
24
14
34
48
41
4
21
28
10
13
45
16
31
26
35
37
46
22
40
25
23

> <PUBCHEM_MMFF94_PARTIAL_CHARGES>
42
1 -0.18
10 -0.62
11 0.37
12 0.37
13 0.27
14 0.27
15 0.37
16 0.1
17 0.41
18 0.37
19 0.51
2 -0.34
20 0.41
21 0.27
22 -0.15
24 -0.14
26 -0.15
27 -0.15
28 0.16
29 0.16
3 -0.34
30 -0.14
31 -0.15
32 -0.15
33 1.16
34 0.18
35 -0.15
4 -0.34
5 -0.84
53 0.4
54 0.15
55 0.15
56 0.15
57 0.15
58 0.15
59 0.15
6 -0.81
60 0.15
61 0.15
7 -0.84
8 -0.87
9 -0.62

> <PUBCHEM_EFFECTIVE_ROTOR_COUNT>
7

> <PUBCHEM_PHARMACOPHORE_FEATURES>
11
1 10 acceptor
1 6 cation
1 7 cation
1 8 cation
1 8 donor
3 5 9 17 cation
6 10 16 20 22 23 28 rings
6 24 30 31 32 34 35 rings
6 5 6 11 12 13 14 rings
6 7 8 15 16 18 20 rings
6 9 17 25 26 27 29 rings

> <PUBCHEM_HEAVY_ATOM_COUNT>
35

> <PUBCHEM_ATOM_DEF_STEREO_COUNT>
0

> <PUBCHEM_ATOM_UDEF_STEREO_COUNT>
0

> <PUBCHEM_BOND_DEF_STEREO_COUNT>
0

> <PUBCHEM_BOND_UDEF_STEREO_COUNT>
0

> <PUBCHEM_ISOTOPIC_ATOM_COUNT>
0

> <PUBCHEM_COMPONENT_COUNT>
1

> <PUBCHEM_CACTVS_TAUTO_COUNT>
2

> <PUBCHEM_CONFORMER_ID>
02CB345500000005

> <PUBCHEM_MMFF94_ENERGY>
120.7203

> <PUBCHEM_FEATURE_SELFOVERLAP>
55.859

> <PUBCHEM_SHAPE_FINGERPRINT>
10162869 55 18341596119843167791
10483366 6 18262817215709088212
10675989 125 18339077198169291544
10677394 325 18191330242404517252
11273773 38 18408326592385850350
11456790 92 18189612753175095267
11578080 2 15792598377641691906
11720765 8 17988099880302445324
11966995 178 18202571687883906489
1200032 147 17458633384103221380
12156800 1 17482578308215250406
12166972 35 18337670797989456971
12655364 74 14429724272153710356
12925494 130 18339918320727800883
13692115 27 17620752791954560930
13878862 14 18263623148630649237
13944108 23 18407763642280000660
14537116 161 18202570562191272085
14931854 50 18197803131365395876
15064981 194 18343028809469756587
151778 21 18262518225122514220
15183329 4 17917998287221847401
15483637 11 17835517124862082313
16992727 255 17972616634890659980
20567600 9 18338523039739027244
21133410 127 17968928824686941605
21987440 362 17980190105294825024
22122407 14 18272094886007610435
23559900 14 18341883079092546035
249057 3 18341327808145082183
3103668 31 17758397375221214358
3298306 158 18270121351986208863
394071 54 16371008559107059397
397830 11 17677348198935964451
44555599 121 18271249305968977241
4573279 73 18127958906053831023
46194498 28 18040151790756400924
4760202 170 18197479763853160157
513532 50 17632296804793013820
5252454 2 18117556447511096902
53794403 172 18261114096933751527
57676310 167 17773017869732382552
58902169 19 18059560362016398935
5951187 136 17916865845568051316
60111433 81 17630305640590714512
6086070 43 18201727292195586851
68570916 9 18412821418160458903

> <PUBCHEM_SHAPE_MULTIPOLES>
670.45
17.98
5.14
1.75
47.11
0.32
-0.59
-6.89
-4.6
-7.65
0.19
-3.33
-2.05
-2.02

> <PUBCHEM_SHAPE_SELFOVERLAP>
1456.303

> <PUBCHEM_SHAPE_VOLUME>
370.7

> <PUBCHEM_COORDINATE_TYPE>
2
5
10

$$$$
