11338778
  -OEChem-10052115183D

 55 58  0     0  0  0  0  0  0999 V2000
    2.4084    3.8517   -0.6289 F   0  0  0  0  0  0  0  0  0  0  0  0
   -5.6888    0.6198    0.8450 O   0  0  0  0  0  0  0  0  0  0  0  0
    4.9920   -0.3833   -0.8380 N   0  0  0  0  0  0  0  0  0  0  0  0
    1.8629   -1.9047   -0.0832 N   0  0  0  0  0  0  0  0  0  0  0  0
   -3.8467   -0.4601    0.2287 N   0  0  0  0  0  0  0  0  0  0  0  0
   -0.3447   -1.1089   -0.0859 N   0  0  0  0  0  0  0  0  0  0  0  0
    0.2101   -3.2234   -1.1000 N   0  0  0  0  0  0  0  0  0  0  0  0
   -3.5508    1.7357    0.4934 N   0  0  0  0  0  0  0  0  0  0  0  0
    3.7401   -1.0005    1.2703 C   0  0  0  0  0  0  0  0  0  0  0  0
    4.8223   -1.3752    0.2203 C   0  0  0  0  0  0  0  0  0  0  0  0
    2.3544   -0.7453    0.6260 C   0  0  0  0  0  0  0  0  0  0  0  0
    3.6417   -2.1525    2.2935 C   0  0  0  0  0  0  0  0  0  0  0  0
    4.1549    0.2739    2.0365 C   0  0  0  0  0  0  0  0  0  0  0  0
    5.4441    0.8912   -0.2790 C   0  0  0  0  0  0  0  0  0  0  0  0
    3.7417   -0.2009   -1.5758 C   0  0  0  0  0  0  0  0  0  0  0  0
    0.5352   -2.0845   -0.4337 C   0  0  0  0  0  0  0  0  0  0  0  0
   -2.5375   -0.2683   -0.0618 C   0  0  0  0  0  0  0  0  0  0  0  0
   -1.6290   -1.3166   -0.4435 C   0  0  0  0  0  0  0  0  0  0  0  0
   -2.3746    1.1037    0.1091 C   0  0  0  0  0  0  0  0  0  0  0  0
   -4.3910    0.7416    0.5462 C   0  0  0  0  0  0  0  0  0  0  0  0
   -2.0645   -2.4367   -1.1217 C   0  0  0  0  0  0  0  0  0  0  0  0
   -1.1427    1.8117   -0.0810 C   0  0  0  0  0  0  0  0  0  0  0  0
   -1.0913   -3.3661   -1.4266 C   0  0  0  0  0  0  0  0  0  0  0  0
   -4.8127   -1.4269    0.3166 C   0  0  0  0  0  0  0  0  0  0  0  0
   -5.9241   -0.7722    0.6890 C   0  0  0  0  0  0  0  0  0  0  0  0
   -0.8226    2.3355   -1.3347 C   0  0  0  0  0  0  0  0  0  0  0  0
   -0.2596    1.9791    0.9875 C   0  0  0  0  0  0  0  0  0  0  0  0
    0.3762    3.0241   -1.5197 C   0  0  0  0  0  0  0  0  0  0  0  0
    0.9393    2.6678    0.8026 C   0  0  0  0  0  0  0  0  0  0  0  0
    1.2573    3.1904   -0.4511 C   0  0  0  0  0  0  0  0  0  0  0  0
    5.7872   -1.5300    0.7234 H   0  0  0  0  0  0  0  0  0  0  0  0
    4.5981   -2.3469   -0.2378 H   0  0  0  0  0  0  0  0  0  0  0  0
    1.6813   -0.6192    1.4905 H   0  0  0  0  0  0  0  0  0  0  0  0
    2.1950    0.2008    0.1244 H   0  0  0  0  0  0  0  0  0  0  0  0
    2.8647   -1.9618    3.0423 H   0  0  0  0  0  0  0  0  0  0  0  0
    4.5904   -2.2820    2.8273 H   0  0  0  0  0  0  0  0  0  0  0  0
    3.4081   -3.1068    1.8093 H   0  0  0  0  0  0  0  0  0  0  0  0
    3.7962    1.2069    1.6031 H   0  0  0  0  0  0  0  0  0  0  0  0
    3.6601    0.2686    3.0192 H   0  0  0  0  0  0  0  0  0  0  0  0
    5.2220    0.3079    2.2729 H   0  0  0  0  0  0  0  0  0  0  0  0
    2.4956   -2.6540   -0.3359 H   0  0  0  0  0  0  0  0  0  0  0  0
    6.2127    0.7853    0.4924 H   0  0  0  0  0  0  0  0  0  0  0  0
    4.6638    1.6034   -0.0106 H   0  0  0  0  0  0  0  0  0  0  0  0
    5.9744    1.4056   -1.0933 H   0  0  0  0  0  0  0  0  0  0  0  0
    3.2066   -1.1201   -1.8126 H   0  0  0  0  0  0  0  0  0  0  0  0
    4.0760    0.0998   -2.5822 H   0  0  0  0  0  0  0  0  0  0  0  0
    3.1261    0.6602   -1.3183 H   0  0  0  0  0  0  0  0  0  0  0  0
   -3.0811   -2.5961   -1.4521 H   0  0  0  0  0  0  0  0  0  0  0  0
   -1.3360   -4.2739   -1.9676 H   0  0  0  0  0  0  0  0  0  0  0  0
   -4.6650   -2.4767    0.1359 H   0  0  0  0  0  0  0  0  0  0  0  0
   -6.9231   -1.1087    0.8893 H   0  0  0  0  0  0  0  0  0  0  0  0
   -1.4980    2.2146   -2.1785 H   0  0  0  0  0  0  0  0  0  0  0  0
   -0.4912    1.5769    1.9710 H   0  0  0  0  0  0  0  0  0  0  0  0
    0.6246    3.4304   -2.4957 H   0  0  0  0  0  0  0  0  0  0  0  0
    1.6257    2.7964    1.6342 H   0  0  0  0  0  0  0  0  0  0  0  0
  1 30  1  0  0  0  0
  2 20  1  0  0  0  0
  2 25  1  0  0  0  0
  3 10  1  0  0  0  0
  3 14  1  0  0  0  0
  3 15  1  0  0  0  0
  4 11  1  0  0  0  0
  4 16  1  0  0  0  0
  4 41  1  0  0  0  0
  5 17  1  0  0  0  0
  5 20  1  0  0  0  0
  5 24  1  0  0  0  0
  6 16  1  0  0  0  0
  6 18  2  0  0  0  0
  7 16  2  0  0  0  0
  7 23  1  0  0  0  0
  8 19  1  0  0  0  0
  8 20  2  0  0  0  0
  9 10  1  0  0  0  0
  9 11  1  0  0  0  0
  9 12  1  0  0  0  0
  9 13  1  0  0  0  0
 10 31  1  0  0  0  0
 10 32  1  0  0  0  0
 11 33  1  0  0  0  0
 11 34  1  0  0  0  0
 12 35  1  0  0  0  0
 12 36  1  0  0  0  0
 12 37  1  0  0  0  0
 13 38  1  0  0  0  0
 13 39  1  0  0  0  0
 13 40  1  0  0  0  0
 14 42  1  0  0  0  0
 14 43  1  0  0  0  0
 14 44  1  0  0  0  0
 15 45  1  0  0  0  0
 15 46  1  0  0  0  0
 15 47  1  0  0  0  0
 17 18  1  0  0  0  0
 17 19  2  0  0  0  0
 18 21  1  0  0  0  0
 19 22  1  0  0  0  0
 21 23  2  0  0  0  0
 21 48  1  0  0  0  0
 22 26  2  0  0  0  0
 22 27  1  0  0  0  0
 23 49  1  0  0  0  0
 24 25  2  0  0  0  0
 24 50  1  0  0  0  0
 25 51  1  0  0  0  0
 26 28  1  0  0  0  0
 26 52  1  0  0  0  0
 27 29  2  0  0  0  0
 27 53  1  0  0  0  0
 28 30  2  0  0  0  0
 28 54  1  0  0  0  0
 29 30  1  0  0  0  0
 29 55  1  0  0  0  0
M  END
> <PUBCHEM_COMPOUND_CID>
11338778

> <PUBCHEM_CONFORMER_RMSD>
0.8

> <PUBCHEM_CONFORMER_DIVERSEORDER>
1
58
11
32
22
61
31
52
25
13
21
67
42
40
20
50
34
59
33
38
47
19
29
14
26
60
65
41
43
63
2
64
39
45
24
16
3
9
36
44
49
57
5
51
54
55
48
30
35
27
56
10
62
18
8
12
15
6
23
66
37
4
53
28
46
7
17

> <PUBCHEM_MMFF94_PARTIAL_CHARGES>
36
1 -0.19
10 0.27
11 0.37
14 0.27
15 0.27
16 0.72
17 -0.2
18 0.36
19 0.17
2 -0.14
20 0.25
21 -0.15
22 0.05
23 0.16
24 -0.18
25 -0.07
26 -0.15
27 -0.15
28 -0.15
29 -0.15
3 -0.81
30 0.19
4 -0.87
41 0.4
48 0.15
49 0.15
5 0.33
50 0.15
51 0.15
52 0.15
53 0.15
54 0.15
55 0.15
6 -0.62
7 -0.62
8 -0.57

> <PUBCHEM_EFFECTIVE_ROTOR_COUNT>
7

> <PUBCHEM_PHARMACOPHORE_FEATURES>
10
1 3 cation
1 4 donor
1 6 acceptor
3 5 8 20 cation
3 9 12 13 hydrophobe
4 4 6 7 16 cation
5 2 5 20 24 25 rings
5 5 8 17 19 20 rings
6 22 26 27 28 29 30 rings
6 6 7 16 18 21 23 rings

> <PUBCHEM_HEAVY_ATOM_COUNT>
30

> <PUBCHEM_ATOM_DEF_STEREO_COUNT>
0

> <PUBCHEM_ATOM_UDEF_STEREO_COUNT>
0

> <PUBCHEM_BOND_DEF_STEREO_COUNT>
0

> <PUBCHEM_BOND_UDEF_STEREO_COUNT>
0

> <PUBCHEM_ISOTOPIC_ATOM_COUNT>
0

> <PUBCHEM_COMPONENT_COUNT>
1

> <PUBCHEM_CACTVS_TAUTO_COUNT>
3

> <PUBCHEM_CONFORMER_ID>
00AD041A00000001

> <PUBCHEM_MMFF94_ENERGY>
144.5261

> <PUBCHEM_FEATURE_SELFOVERLAP>
51.123

> <PUBCHEM_SHAPE_FINGERPRINT>
10670039 82 18266188240665692798
10675989 125 16683712123232005343
10906281 52 18265630796981416953
1100329 8 18341618182377789719
11112241 14 16772361067795392592
11513181 2 17701539752174712510
11595378 159 18189043231848097626
11963148 33 17614564074867165419
12422481 6 18265052427668395153
12553582 1 18409156714990308676
13140716 1 18268991067440087275
13402501 40 18131074792767045054
13726171 33 18337679590352638232
14020679 6 18040723614365795171
14117953 113 18123464982027104284
14341114 328 18113903723591356531
14787075 74 17822014194138030491
14790565 3 18343030977368074457
14840074 17 18408612456423595900
14955137 171 18342466945304050875
15001296 14 18265615574752461836
15297060 5 17845946224895789106
15403338 16 17604139312306101123
15575132 122 18261117326891713108
15685185 35 17171545469822017156
15927050 60 17908992354227805380
1601671 61 18340774762390825083
17492 54 18043557043056318100
1813 80 17895183424491473825
19319366 153 17894629279790637378
19591789 44 18269845379463692207
20642791 178 18337689571951072629
20642791 35 18338804532470723932
20691752 17 17824524486785070488
20715895 44 17248350397658143341
21033648 29 17774993558096532579
23558518 356 17687468279165521598
23559900 14 17917163787428178940
338550 245 18194123138328715685
350125 39 18411706487283358009
3680242 22 18337681836129033458
463206 1 18192152822598809132
469060 322 18265625285931942608
5265222 85 17327754297275874780

> <PUBCHEM_SHAPE_MULTIPOLES>
574.36
10.95
4.17
1.56
2.17
1.41
-0.25
-2.49
-3.63
-0.8
1.52
-1.42
-0.32
-1.29

> <PUBCHEM_SHAPE_SELFOVERLAP>
1255.653

> <PUBCHEM_SHAPE_VOLUME>
315.8

> <PUBCHEM_COORDINATE_TYPE>
2
5
10

$$$$
