49830887
  -OEChem-10052115193D

 29 31  0     0  0  0  0  0  0999 V2000
   -0.9076   -2.4125    0.9117 O   0  0  0  0  0  0  0  0  0  0  0  0
    3.4887    0.1831   -1.0550 N   0  0  0  0  0  0  0  0  0  0  0  0
    0.7164    0.1088    1.8831 N   0  0  0  0  0  0  0  0  0  0  0  0
    3.0696   -0.1163    1.3005 N   0  0  0  0  0  0  0  0  0  0  0  0
    1.3676    0.3645   -0.3852 C   0  0  0  0  0  0  0  0  0  0  0  0
    0.3766    0.3484    0.5954 C   0  0  0  0  0  0  0  0  0  0  0  0
   -1.0079    0.5784    0.2910 C   0  0  0  0  0  0  0  0  0  0  0  0
    2.6688    0.1270    0.0406 C   0  0  0  0  0  0  0  0  0  0  0  0
   -1.8602   -0.4753   -0.0389 C   0  0  0  0  0  0  0  0  0  0  0  0
    1.4223    0.5682   -1.7877 C   0  0  0  0  0  0  0  0  0  0  0  0
   -1.4959    1.8844    0.3295 C   0  0  0  0  0  0  0  0  0  0  0  0
    2.7409    0.4513   -2.1728 C   0  0  0  0  0  0  0  0  0  0  0  0
   -3.2007   -0.2228   -0.3304 C   0  0  0  0  0  0  0  0  0  0  0  0
   -1.3913   -1.8553   -0.0910 C   0  0  0  0  0  0  0  0  0  0  0  0
   -2.8365    2.1369    0.0380 C   0  0  0  0  0  0  0  0  0  0  0  0
   -3.6889    1.0833   -0.2920 C   0  0  0  0  0  0  0  0  0  0  0  0
    2.0239   -0.1057    2.1522 C   0  0  0  0  0  0  0  0  0  0  0  0
   -1.4859   -2.6463   -1.3890 C   0  0  0  0  0  0  0  0  0  0  0  0
    0.5945    0.7773   -2.4515 H   0  0  0  0  0  0  0  0  0  0  0  0
   -0.8462    2.7185    0.5850 H   0  0  0  0  0  0  0  0  0  0  0  0
    4.4900    0.0478   -1.0413 H   0  0  0  0  0  0  0  0  0  0  0  0
    3.2125    0.5344   -3.1418 H   0  0  0  0  0  0  0  0  0  0  0  0
   -3.8789   -1.0332   -0.5856 H   0  0  0  0  0  0  0  0  0  0  0  0
   -3.2167    3.1538    0.0681 H   0  0  0  0  0  0  0  0  0  0  0  0
   -4.7328    1.2799   -0.5181 H   0  0  0  0  0  0  0  0  0  0  0  0
    2.2629   -0.2947    3.1932 H   0  0  0  0  0  0  0  0  0  0  0  0
   -0.5118   -3.0930   -1.6061 H   0  0  0  0  0  0  0  0  0  0  0  0
   -1.7541   -1.9917   -2.2229 H   0  0  0  0  0  0  0  0  0  0  0  0
   -2.2455   -3.4245   -1.2825 H   0  0  0  0  0  0  0  0  0  0  0  0
  1 14  2  0  0  0  0
  2  8  1  0  0  0  0
  2 12  1  0  0  0  0
  2 21  1  0  0  0  0
  3  6  1  0  0  0  0
  3 17  2  0  0  0  0
  4  8  2  0  0  0  0
  4 17  1  0  0  0  0
  5  6  2  0  0  0  0
  5  8  1  0  0  0  0
  5 10  1  0  0  0  0
  6  7  1  0  0  0  0
  7  9  1  0  0  0  0
  7 11  2  0  0  0  0
  9 13  2  0  0  0  0
  9 14  1  0  0  0  0
 10 12  2  0  0  0  0
 10 19  1  0  0  0  0
 11 15  1  0  0  0  0
 11 20  1  0  0  0  0
 12 22  1  0  0  0  0
 13 16  1  0  0  0  0
 13 23  1  0  0  0  0
 14 18  1  0  0  0  0
 15 16  2  0  0  0  0
 15 24  1  0  0  0  0
 16 25  1  0  0  0  0
 17 26  1  0  0  0  0
 18 27  1  0  0  0  0
 18 28  1  0  0  0  0
 18 29  1  0  0  0  0
M  END
> <PUBCHEM_COMPOUND_CID>
49830887

> <PUBCHEM_CONFORMER_RMSD>
0.6

> <PUBCHEM_CONFORMER_DIVERSEORDER>
3
7
5
2
6
8
4
1

> <PUBCHEM_MMFF94_PARTIAL_CHARGES>
24
1 -0.57
10 -0.15
11 -0.15
12 -0.3
13 -0.15
14 0.42
15 -0.15
16 -0.15
17 0.47
18 0.06
19 0.15
2 0.03
20 0.15
21 0.27
22 0.15
23 0.15
24 0.15
25 0.15
26 0.15
3 -0.62
4 -0.57
6 0.31
8 0.11
9 0.09

> <PUBCHEM_EFFECTIVE_ROTOR_COUNT>
2

> <PUBCHEM_PHARMACOPHORE_FEATURES>
7
1 1 acceptor
1 2 donor
3 2 4 8 cation
3 3 4 17 cation
5 2 5 8 10 12 rings
6 3 4 5 6 8 17 rings
6 7 9 11 13 15 16 rings

> <PUBCHEM_HEAVY_ATOM_COUNT>
18

> <PUBCHEM_ATOM_DEF_STEREO_COUNT>
0

> <PUBCHEM_ATOM_UDEF_STEREO_COUNT>
0

> <PUBCHEM_BOND_DEF_STEREO_COUNT>
0

> <PUBCHEM_BOND_UDEF_STEREO_COUNT>
0

> <PUBCHEM_ISOTOPIC_ATOM_COUNT>
0

> <PUBCHEM_COMPONENT_COUNT>
1

> <PUBCHEM_CACTVS_TAUTO_COUNT>
15

> <PUBCHEM_CONFORMER_ID>
02F85BE700000003

> <PUBCHEM_MMFF94_ENERGY>
49.931

> <PUBCHEM_FEATURE_SELFOVERLAP>
35.798

> <PUBCHEM_SHAPE_FINGERPRINT>
11471102 22 15698005154040546574
11640471 11 17894918442183534892
116883 192 17627777940947105143
11725454 13 16624562404108042745
12202030 40 17273709834340653422
12236239 1 17894628132406309617
13538477 17 18113615733143638443
13898156 1 18041270049742161968
14142880 1 13773321220564943110
14181834 199 17402869156513441143
14817 1 8069756147737139467
15207287 21 17203033115269587534
15279307 12 17749111114355187922
15342168 16 15142111917432559390
15375462 175 18341338829214948627
15669948 3 18336828688057019767
15775835 57 17530974578609492365
15852999 172 17917426488785950726
16752209 62 18409160031011159103
16945 1 18343584053328247509
17357990 137 17967819284267173884
18186145 218 17703230607420868425
19049666 15 17418099762857905033
19422 9 17676207970189845571
19868273 293 18410296912727209181
20600515 1 18271508845461387720
20645476 183 17822014224461134067
21639500 275 16298384703590338092
22112679 90 18113889481384655620
232386 152 18264191660155300834
23493267 7 18187664487010427931
23526113 38 17346606235612692446
23557571 272 18127692849265335800
23559900 14 18130790036762010414
23598291 2 17748824085864171094
2748010 2 17910948364291995659
298252 57 18189351103197703441
430814 3 17822021877892194073
474 4 17024323022529785556
5845 1 11113224236705856123
7364860 26 17553755162936707831
77492 1 17894345566555339577
81228 2 18128530673184297939
8272917 22 16733825255943516097
88987 49 18412819213834140960
90525 40 18186805755502008831

> <PUBCHEM_SHAPE_MULTIPOLES>
349.62
5.47
2.09
1.81
0.25
1.31
-0.06
-1.41
1.19
-2.34
0.18
2.02
0.07
0.03

> <PUBCHEM_SHAPE_SELFOVERLAP>
782.592

> <PUBCHEM_SHAPE_VOLUME>
184.1

> <PUBCHEM_COORDINATE_TYPE>
2
5
10

$$$$
