24905211
  -OEChem-10052115163D

 43 47  0     0  0  0  0  0  0999 V2000
   -2.4252    0.2330   -0.0454 N   0  0  0  0  0  0  0  0  0  0  0  0
   -1.2283    0.8257    0.1223 N   0  0  0  0  0  0  0  0  0  0  0  0
   -3.3783   -1.9806   -0.2774 N   0  0  0  0  0  0  0  0  0  0  0  0
   -1.6653   -3.7147   -0.1836 N   0  0  0  0  0  0  0  0  0  0  0  0
    0.6526   -3.2236    0.1051 N   0  0  0  0  0  0  0  0  0  0  0  0
    2.9098    0.3226    1.8152 N   0  0  0  0  0  0  0  0  0  0  0  0
   -3.6722    1.0838   -0.1367 C   0  0  0  0  0  0  0  0  0  0  0  0
   -3.6760    2.0902   -1.3063 C   0  0  0  0  0  0  0  0  0  0  0  0
   -3.9097    1.9206    1.1330 C   0  0  0  0  0  0  0  0  0  0  0  0
   -3.7558    3.4709   -0.6649 C   0  0  0  0  0  0  0  0  0  0  0  0
   -4.5105    3.2243    0.6294 C   0  0  0  0  0  0  0  0  0  0  0  0
   -2.3553   -1.1267   -0.1145 C   0  0  0  0  0  0  0  0  0  0  0  0
   -1.0156   -1.4475    0.0174 C   0  0  0  0  0  0  0  0  0  0  0  0
   -0.3741   -0.2030    0.1597 C   0  0  0  0  0  0  0  0  0  0  0  0
    1.0275    0.0412    0.3303 C   0  0  0  0  0  0  0  0  0  0  0  0
   -0.6818   -2.7971   -0.0215 C   0  0  0  0  0  0  0  0  0  0  0  0
    1.8631    0.2306   -0.7609 C   0  0  0  0  0  0  0  0  0  0  0  0
   -2.9343   -3.2559   -0.2999 C   0  0  0  0  0  0  0  0  0  0  0  0
    1.5961    0.0963    1.5865 C   0  0  0  0  0  0  0  0  0  0  0  0
    3.2310    0.4673   -0.5686 C   0  0  0  0  0  0  0  0  0  0  0  0
    3.7186    0.5060    0.7544 C   0  0  0  0  0  0  0  0  0  0  0  0
    4.1036    0.6626   -1.6526 C   0  0  0  0  0  0  0  0  0  0  0  0
    5.0773    0.7417    0.9448 C   0  0  0  0  0  0  0  0  0  0  0  0
    5.4579    0.8962   -1.4331 C   0  0  0  0  0  0  0  0  0  0  0  0
    5.9450    0.9361   -0.1326 C   0  0  0  0  0  0  0  0  0  0  0  0
   -4.4960    0.3728   -0.2737 H   0  0  0  0  0  0  0  0  0  0  0  0
   -4.5705    1.9233   -1.9191 H   0  0  0  0  0  0  0  0  0  0  0  0
   -2.8067    2.0001   -1.9654 H   0  0  0  0  0  0  0  0  0  0  0  0
   -2.9745    2.1268    1.6668 H   0  0  0  0  0  0  0  0  0  0  0  0
   -4.5785    1.4101    1.8335 H   0  0  0  0  0  0  0  0  0  0  0  0
   -4.2570    4.1990   -1.3090 H   0  0  0  0  0  0  0  0  0  0  0  0
   -2.7470    3.8424   -0.4491 H   0  0  0  0  0  0  0  0  0  0  0  0
   -4.3887    4.0416    1.3458 H   0  0  0  0  0  0  0  0  0  0  0  0
   -5.5810    3.0975    0.4291 H   0  0  0  0  0  0  0  0  0  0  0  0
    1.4558    0.1944   -1.7703 H   0  0  0  0  0  0  0  0  0  0  0  0
   -3.6967   -4.0167   -0.4283 H   0  0  0  0  0  0  0  0  0  0  0  0
    1.0035   -0.0433    2.4863 H   0  0  0  0  0  0  0  0  0  0  0  0
    1.4066   -2.5637    0.2261 H   0  0  0  0  0  0  0  0  0  0  0  0
    0.8513   -4.2146    0.0713 H   0  0  0  0  0  0  0  0  0  0  0  0
    3.7326    0.6336   -2.6748 H   0  0  0  0  0  0  0  0  0  0  0  0
    5.4838    0.7775    1.9540 H   0  0  0  0  0  0  0  0  0  0  0  0
    6.1292    1.0467   -2.2731 H   0  0  0  0  0  0  0  0  0  0  0  0
    7.0004    1.1179    0.0480 H   0  0  0  0  0  0  0  0  0  0  0  0
  1  2  1  0  0  0  0
  1  7  1  0  0  0  0
  1 12  1  0  0  0  0
  2 14  2  0  0  0  0
  3 12  2  0  0  0  0
  3 18  1  0  0  0  0
  4 16  1  0  0  0  0
  4 18  2  0  0  0  0
  5 16  1  0  0  0  0
  5 38  1  0  0  0  0
  5 39  1  0  0  0  0
  6 19  2  0  0  0  0
  6 21  1  0  0  0  0
  7  8  1  0  0  0  0
  7  9  1  0  0  0  0
  7 26  1  0  0  0  0
  8 10  1  0  0  0  0
  8 27  1  0  0  0  0
  8 28  1  0  0  0  0
  9 11  1  0  0  0  0
  9 29  1  0  0  0  0
  9 30  1  0  0  0  0
 10 11  1  0  0  0  0
 10 31  1  0  0  0  0
 10 32  1  0  0  0  0
 11 33  1  0  0  0  0
 11 34  1  0  0  0  0
 12 13  1  0  0  0  0
 13 14  1  0  0  0  0
 13 16  2  0  0  0  0
 14 15  1  0  0  0  0
 15 17  2  0  0  0  0
 15 19  1  0  0  0  0
 17 20  1  0  0  0  0
 17 35  1  0  0  0  0
 18 36  1  0  0  0  0
 19 37  1  0  0  0  0
 20 21  1  0  0  0  0
 20 22  2  0  0  0  0
 21 23  2  0  0  0  0
 22 24  1  0  0  0  0
 22 40  1  0  0  0  0
 23 25  1  0  0  0  0
 23 41  1  0  0  0  0
 24 25  2  0  0  0  0
 24 42  1  0  0  0  0
 25 43  1  0  0  0  0
M  END
> <PUBCHEM_COMPOUND_CID>
24905211

> <PUBCHEM_CONFORMER_RMSD>
0.6

> <PUBCHEM_CONFORMER_DIVERSEORDER>
1
4
12
15
8
9
16
13
7
6
11
10
3
2
5
14

> <PUBCHEM_MMFF94_PARTIAL_CHARGES>
28
1 0.31
12 0.11
14 0.23
15 0.05
16 0.41
17 -0.15
18 0.47
19 0.16
2 -0.71
21 0.31
22 -0.15
23 -0.15
24 -0.15
25 -0.15
3 -0.57
35 0.15
36 0.15
37 0.15
38 0.4
39 0.4
4 -0.62
40 0.15
41 0.15
42 0.15
43 0.15
5 -0.9
6 -0.62
7 0.26

> <PUBCHEM_EFFECTIVE_ROTOR_COUNT>
3

> <PUBCHEM_PHARMACOPHORE_FEATURES>
11
1 2 acceptor
1 5 cation
1 5 donor
1 6 acceptor
3 1 3 12 cation
3 3 4 18 cation
5 1 2 12 13 14 rings
5 7 8 9 10 11 rings
6 20 21 22 23 24 25 rings
6 3 4 12 13 16 18 rings
6 6 15 17 19 20 21 rings

> <PUBCHEM_HEAVY_ATOM_COUNT>
25

> <PUBCHEM_ATOM_DEF_STEREO_COUNT>
0

> <PUBCHEM_ATOM_UDEF_STEREO_COUNT>
0

> <PUBCHEM_BOND_DEF_STEREO_COUNT>
0

> <PUBCHEM_BOND_UDEF_STEREO_COUNT>
0

> <PUBCHEM_ISOTOPIC_ATOM_COUNT>
0

> <PUBCHEM_COMPONENT_COUNT>
1

> <PUBCHEM_CACTVS_TAUTO_COUNT>
5

> <PUBCHEM_CONFORMER_ID>
017C05FB00000001

> <PUBCHEM_MMFF94_ENERGY>
67.6427

> <PUBCHEM_FEATURE_SELFOVERLAP>
56.133

> <PUBCHEM_SHAPE_FINGERPRINT>
10165383 225 18270412607247219385
10319926 262 18198883955943628640
10411042 1 17834394901621512991
105312 117 18412546479036932117
10615611 76 17531541961132641844
11056379 131 18339082712627308759
11582403 64 16266237135161754794
11796584 16 18343025463663872446
12236239 1 17604702395609034986
12293681 160 17774440452134541081
12390115 104 18271253733520986153
12422481 6 17532363159122242612
12616971 3 17312817178788248832
12788726 201 18189610717065632835
13140716 1 18049722125149589651
13540713 5 18195792004423783743
13617811 41 18264489666751817079
14294032 229 18410294684473152061
14508225 48 17981595272327493391
14713325 29 18335709377110505475
14790565 3 18196660587775011113
15021287 119 17313374592454894728
15163728 17 18266184928760701333
15230672 131 18337114446193154974
15463212 79 18260824912432559833
15842332 3 17895456094958840202
16087824 20 18411697717677649087
16752209 62 18338225089268002883
16988056 13 16389001684491095517
17818456 19 18191853540750564536
17844677 252 18268432502716899064
18785283 64 17902511480843985315
19784866 34 18198341758787306337
20642791 178 18263359201353079298
20645477 70 16343712027949346788
21033648 29 18342732992479322609
21033650 10 18190483678237786436
21065201 7 18342737468435949138
21279426 13 18129953282585908358
22122407 14 16081083788297404141
22907989 373 18263913505446935727
23557571 272 18201440341446862128
23559900 14 18127127709210662400
283562 15 18338792429379718083
350125 39 18410858789408467281
38570 142 17344365354075898817
4015057 19 16630521856389382152
469060 322 18337123349506515273
5252454 2 18269553849837134105
5283173 99 18342459300684478128
57527295 17 17203324460118009135
59755656 520 17845674563713290539
6327066 14 18261105215385092917
7808743 9 18408887325740917068
9849439 229 18194679259849093281
9862522 239 17896028876203366725

> <PUBCHEM_SHAPE_MULTIPOLES>
484.6
11.41
3.93
1.29
10.71
2.51
-0.09
-9.39
1.3
-7.28
0.45
1.11
-0.58
-0.47

> <PUBCHEM_SHAPE_SELFOVERLAP>
1091.215

> <PUBCHEM_SHAPE_VOLUME>
253

> <PUBCHEM_COORDINATE_TYPE>
2
5
10

$$$$
