71552941
  -OEChem-10062121573D

 64 67  0     0  0  0  0  0  0999 V2000
    5.5392    0.1983    2.4751 Cl  0  0  0  0  0  0  0  0  0  0  0  0
    7.8439   -0.7073   -3.2485 Cl  0  0  0  0  0  0  0  0  0  0  0  0
   -3.7724    0.6126   -1.4516 O   0  0  0  0  0  0  0  0  0  0  0  0
   -2.9944   -0.0671    1.4179 O   0  0  0  0  0  0  0  0  0  0  0  0
   -1.0134    1.2530    0.1827 N   0  0  0  0  0  0  0  0  0  0  0  0
   -5.5463   -0.9027   -1.1366 N   0  0  0  0  0  0  0  0  0  0  0  0
    1.0779    0.2020    0.2691 N   0  0  0  0  0  0  0  0  0  0  0  0
   -2.9376   -2.3383    0.9533 N   0  0  0  0  0  0  0  0  0  0  0  0
    1.2429   -2.0869    1.0047 N   0  0  0  0  0  0  0  0  0  0  0  0
    3.1550   -0.8847    0.3687 N   0  0  0  0  0  0  0  0  0  0  0  0
   -0.4533    2.4980   -0.2982 C   0  0  0  0  0  0  0  0  0  0  0  0
    0.0693    3.3375    0.8612 C   0  0  0  0  0  0  0  0  0  0  0  0
   -1.5409    3.3853   -0.8911 C   0  0  0  0  0  0  0  0  0  0  0  0
   -1.1666    4.0260    1.4366 C   0  0  0  0  0  0  0  0  0  0  0  0
   -2.2029    4.0509    0.3133 C   0  0  0  0  0  0  0  0  0  0  0  0
   -0.2558    0.1281    0.4595 C   0  0  0  0  0  0  0  0  0  0  0  0
   -6.9720   -0.8212   -0.9244 C   0  0  0  0  0  0  0  0  0  0  0  0
   -7.1596    0.5819   -0.3833 C   0  0  0  0  0  0  0  0  0  0  0  0
   -4.8855   -2.1688   -1.3676 C   0  0  0  0  0  0  0  0  0  0  0  0
   -6.0342    1.3782   -1.0327 C   0  0  0  0  0  0  0  0  0  0  0  0
   -4.9435    0.3501   -1.2218 C   0  0  0  0  0  0  0  0  0  0  0  0
   -4.9974   -3.1149   -0.1739 C   0  0  0  0  0  0  0  0  0  0  0  0
   -0.9040   -1.0023    0.9135 C   0  0  0  0  0  0  0  0  0  0  0  0
   -4.3556   -2.5755    1.1027 C   0  0  0  0  0  0  0  0  0  0  0  0
   -2.3408   -1.0835    1.1226 C   0  0  0  0  0  0  0  0  0  0  0  0
   -0.0959   -2.0905    1.1725 C   0  0  0  0  0  0  0  0  0  0  0  0
    1.7562   -0.9252    0.5569 C   0  0  0  0  0  0  0  0  0  0  0  0
    3.8406    0.2782   -0.1009 C   0  0  0  0  0  0  0  0  0  0  0  0
    5.3132    0.0046   -0.2335 C   0  0  0  0  0  0  0  0  0  0  0  0
    6.1514   -0.0479    0.8802 C   0  0  0  0  0  0  0  0  0  0  0  0
    5.8363   -0.1994   -1.5103 C   0  0  0  0  0  0  0  0  0  0  0  0
    7.1976   -0.4560   -1.6734 C   0  0  0  0  0  0  0  0  0  0  0  0
    7.5128   -0.3042    0.7170 C   0  0  0  0  0  0  0  0  0  0  0  0
    8.0359   -0.5083   -0.5597 C   0  0  0  0  0  0  0  0  0  0  0  0
    0.3218    2.3077   -1.0492 H   0  0  0  0  0  0  0  0  0  0  0  0
    0.7585    4.1006    0.4786 H   0  0  0  0  0  0  0  0  0  0  0  0
    0.6034    2.7619    1.6237 H   0  0  0  0  0  0  0  0  0  0  0  0
   -1.0824    4.1585   -1.5202 H   0  0  0  0  0  0  0  0  0  0  0  0
   -2.2635    2.8418   -1.5064 H   0  0  0  0  0  0  0  0  0  0  0  0
   -0.9297    5.0332    1.7941 H   0  0  0  0  0  0  0  0  0  0  0  0
   -1.5575    3.4593    2.2897 H   0  0  0  0  0  0  0  0  0  0  0  0
   -3.0955    3.4916    0.6173 H   0  0  0  0  0  0  0  0  0  0  0  0
   -2.5225    5.0710    0.0773 H   0  0  0  0  0  0  0  0  0  0  0  0
   -1.9338    1.3077    0.6043 H   0  0  0  0  0  0  0  0  0  0  0  0
   -7.3252   -1.5725   -0.2149 H   0  0  0  0  0  0  0  0  0  0  0  0
   -7.4718   -0.9560   -1.8892 H   0  0  0  0  0  0  0  0  0  0  0  0
   -7.0219    0.5807    0.7053 H   0  0  0  0  0  0  0  0  0  0  0  0
   -8.1508    0.9916   -0.5964 H   0  0  0  0  0  0  0  0  0  0  0  0
   -3.8352   -1.9870   -1.6196 H   0  0  0  0  0  0  0  0  0  0  0  0
   -5.3533   -2.6258   -2.2470 H   0  0  0  0  0  0  0  0  0  0  0  0
   -5.6938    2.1973   -0.3946 H   0  0  0  0  0  0  0  0  0  0  0  0
   -6.3295    1.7623   -2.0140 H   0  0  0  0  0  0  0  0  0  0  0  0
   -4.5096   -4.0601   -0.4445 H   0  0  0  0  0  0  0  0  0  0  0  0
   -6.0458   -3.3589    0.0294 H   0  0  0  0  0  0  0  0  0  0  0  0
   -4.4619   -3.3198    1.8994 H   0  0  0  0  0  0  0  0  0  0  0  0
   -4.8614   -1.6649    1.4391 H   0  0  0  0  0  0  0  0  0  0  0  0
   -2.3713   -3.1387    0.6927 H   0  0  0  0  0  0  0  0  0  0  0  0
   -0.4774   -3.0291    1.5606 H   0  0  0  0  0  0  0  0  0  0  0  0
    3.6616   -1.7356    0.5862 H   0  0  0  0  0  0  0  0  0  0  0  0
    3.6796    1.1344    0.5662 H   0  0  0  0  0  0  0  0  0  0  0  0
    3.4346    0.5832   -1.0745 H   0  0  0  0  0  0  0  0  0  0  0  0
    5.1852   -0.1618   -2.3809 H   0  0  0  0  0  0  0  0  0  0  0  0
    8.1792   -0.3485    1.5748 H   0  0  0  0  0  0  0  0  0  0  0  0
    9.0986   -0.7071   -0.6719 H   0  0  0  0  0  0  0  0  0  0  0  0
  1 30  1  0  0  0  0
  2 32  1  0  0  0  0
  3 21  2  0  0  0  0
  4 25  2  0  0  0  0
  5 11  1  0  0  0  0
  5 16  1  0  0  0  0
  5 44  1  0  0  0  0
  6 17  1  0  0  0  0
  6 19  1  0  0  0  0
  6 21  1  0  0  0  0
  7 16  2  0  0  0  0
  7 27  1  0  0  0  0
  8 24  1  0  0  0  0
  8 25  1  0  0  0  0
  8 57  1  0  0  0  0
  9 26  1  0  0  0  0
  9 27  2  0  0  0  0
 10 27  1  0  0  0  0
 10 28  1  0  0  0  0
 10 59  1  0  0  0  0
 11 12  1  0  0  0  0
 11 13  1  0  0  0  0
 11 35  1  0  0  0  0
 12 14  1  0  0  0  0
 12 36  1  0  0  0  0
 12 37  1  0  0  0  0
 13 15  1  0  0  0  0
 13 38  1  0  0  0  0
 13 39  1  0  0  0  0
 14 15  1  0  0  0  0
 14 40  1  0  0  0  0
 14 41  1  0  0  0  0
 15 42  1  0  0  0  0
 15 43  1  0  0  0  0
 16 23  1  0  0  0  0
 17 18  1  0  0  0  0
 17 45  1  0  0  0  0
 17 46  1  0  0  0  0
 18 20  1  0  0  0  0
 18 47  1  0  0  0  0
 18 48  1  0  0  0  0
 19 22  1  0  0  0  0
 19 49  1  0  0  0  0
 19 50  1  0  0  0  0
 20 21  1  0  0  0  0
 20 51  1  0  0  0  0
 20 52  1  0  0  0  0
 22 24  1  0  0  0  0
 22 53  1  0  0  0  0
 22 54  1  0  0  0  0
 23 25  1  0  0  0  0
 23 26  2  0  0  0  0
 24 55  1  0  0  0  0
 24 56  1  0  0  0  0
 26 58  1  0  0  0  0
 28 29  1  0  0  0  0
 28 60  1  0  0  0  0
 28 61  1  0  0  0  0
 29 30  2  0  0  0  0
 29 31  1  0  0  0  0
 30 33  1  0  0  0  0
 31 32  2  0  0  0  0
 31 62  1  0  0  0  0
 32 34  1  0  0  0  0
 33 34  2  0  0  0  0
 33 63  1  0  0  0  0
 34 64  1  0  0  0  0
M  END
> <PUBCHEM_COMPOUND_CID>
71552941

> <PUBCHEM_CONFORMER_RMSD>
1.4

> <PUBCHEM_CONFORMER_DIVERSEORDER>
1
89
128
134
51
157
15
160
58
41
188
73
16
186
149
137
104
140
71
180
8
54
125
102
105
46
122
78
192
25
150
42
11
179
27
76
94
66
169
131
103
123
35
93
147
18
146
106
4
194
127
154
26
148
193
158
156
6
159
38
168
55
75
132
44
185
88
174
32
97
86
21
172
136
77
56
107
163
177
24
113
144
187
116
92
184
74
101
82
114
189
151
84
17
10
95
110
22
12
182
5
175
57
145
37
68
183
20
162
87
161
81
152
36
64
96
59
72
120
7
29
153
118
48
130
23
171
112
69
165
109
166
191
14
155
45
80
119
178
139
124
61
28
30
40
34
117
99
173
115
141
53
164
43
176
52
39
85
67
138
19
49
133
91
65
13
126
31
111
129
108
181
98
100
33
121
70
170
79
143
142
62
63
135
190
83
47
9
167
3
90
2
60
50

> <PUBCHEM_MMFF94_PARTIAL_CHARGES>
35
1 -0.18
10 -0.87
11 0.37
16 0.41
17 0.3
19 0.3
2 -0.18
20 0.06
21 0.57
23 0.09
24 0.3
25 0.54
26 0.16
27 0.72
28 0.51
29 -0.14
3 -0.57
30 0.18
31 -0.15
32 0.18
33 -0.15
34 -0.15
4 -0.57
44 0.4
5 -0.87
57 0.37
58 0.15
59 0.4
6 -0.66
62 0.15
63 0.15
64 0.15
7 -0.62
8 -0.73
9 -0.62

> <PUBCHEM_EFFECTIVE_ROTOR_COUNT>
12.8

> <PUBCHEM_PHARMACOPHORE_FEATURES>
10
1 10 donor
1 3 acceptor
1 4 acceptor
1 5 donor
1 8 donor
4 7 9 10 27 cation
5 11 12 13 14 15 rings
5 6 17 18 20 21 rings
6 29 30 31 32 33 34 rings
6 7 9 16 23 26 27 rings

> <PUBCHEM_HEAVY_ATOM_COUNT>
34

> <PUBCHEM_ATOM_DEF_STEREO_COUNT>
0

> <PUBCHEM_ATOM_UDEF_STEREO_COUNT>
0

> <PUBCHEM_BOND_DEF_STEREO_COUNT>
0

> <PUBCHEM_BOND_UDEF_STEREO_COUNT>
0

> <PUBCHEM_ISOTOPIC_ATOM_COUNT>
0

> <PUBCHEM_COMPONENT_COUNT>
1

> <PUBCHEM_CACTVS_TAUTO_COUNT>
42

> <PUBCHEM_CONFORMER_ID>
0443CFAD00000001

> <PUBCHEM_MMFF94_ENERGY>
82.4759

> <PUBCHEM_FEATURE_SELFOVERLAP>
50.748

> <PUBCHEM_SHAPE_FINGERPRINT>
10076449 9 18334582356385509777
10165383 225 17822004286740066359
10454371 7 18340772550646704836
10670039 82 18335991883343090360
12539747 91 17988633104755010768
12788726 201 18266167354049730633
13540713 5 17973720281874920938
13692115 27 18116721918318036099
13782708 43 17704360957451984462
14040222 275 18341908406762636428
14068700 675 18335135410286681180
14294032 229 18189898617176436772
14856354 85 18411134754121622207
15082195 135 18186810162940171822
15183329 4 17095514119626456510
15419008 47 18060411430944465800
16087824 20 18338232649671505693
16992727 255 18041273267279828893
16993089 31 16486431893099554996
17913733 40 8141819299842465637
21033648 29 12757441609216655212
21424621 283 11026059288509743278
21792961 116 18113622291765019363
22122407 14 15213317334857745710
23559900 14 18119234311346430345
249057 3 18341604959054381999
2838139 119 16008745814209548198
4258327 124 16733283295595322038
4353968 344 18340773629437870414
57527452 28 16487251098029184255
5969126 39 18343019995252294780

> <PUBCHEM_SHAPE_MULTIPOLES>
661.82
22.1
3.84
2
26.01
4.1
-0.7
-8.99
-11.94
-6.57
0.98
3.25
-0.37
1.13

> <PUBCHEM_SHAPE_SELFOVERLAP>
1383.54

> <PUBCHEM_SHAPE_VOLUME>
375.4

> <PUBCHEM_COORDINATE_TYPE>
2
5
10

$$$$
