22607336
  -OEChem-10052120443D

 52 55  0     1  0  0  0  0  0999 V2000
    1.3144    0.0735   -0.1396 O   0  0  0  0  0  0  0  0  0  0  0  0
    3.6258    0.1144   -2.8288 N   0  0  0  0  0  0  0  0  0  0  0  0
   -7.8317   -0.8958   -0.2448 N   0  0  0  0  0  0  0  0  0  0  0  0
   -7.1370   -1.9923    0.1154 N   0  0  0  0  0  0  0  0  0  0  0  0
   -1.0792    2.6996    0.7314 N   0  0  0  0  0  0  0  0  0  0  0  0
    3.7351    0.0242   -0.3170 C   0  0  1  0  0  0  0  0  0  0  0  0
    4.9937    0.9132   -0.2010 C   0  0  0  0  0  0  0  0  0  0  0  0
    2.4828    0.8784   -0.0534 C   0  0  0  0  0  0  0  0  0  0  0  0
    3.6394   -0.7493   -1.6531 C   0  0  0  0  0  0  0  0  0  0  0  0
    6.2576    0.1539    0.1214 C   0  0  0  0  0  0  0  0  0  0  0  0
    6.6288   -0.0502    1.4505 C   0  0  0  0  0  0  0  0  0  0  0  0
    7.0545   -0.3442   -0.9095 C   0  0  0  0  0  0  0  0  0  0  0  0
    0.1187    0.6894    0.1239 C   0  0  0  0  0  0  0  0  0  0  0  0
   -5.8109   -0.1576   -0.0729 C   0  0  0  0  0  0  0  0  0  0  0  0
   -3.5357   -0.0683    0.2860 C   0  0  0  0  0  0  0  0  0  0  0  0
   -2.2763    0.6360    0.3388 C   0  0  0  0  0  0  0  0  0  0  0  0
   -4.6882    0.6605   -0.0683 C   0  0  0  0  0  0  0  0  0  0  0  0
   -5.8664   -1.5673    0.2322 C   0  0  0  0  0  0  0  0  0  0  0  0
   -1.0786   -0.0152    0.0650 C   0  0  0  0  0  0  0  0  0  0  0  0
   -7.0836    0.2379   -0.3730 C   0  0  0  0  0  0  0  0  0  0  0  0
   -3.5385   -1.4646    0.5967 C   0  0  0  0  0  0  0  0  0  0  0  0
    7.7967   -0.7520    1.7487 C   0  0  0  0  0  0  0  0  0  0  0  0
    8.2224   -1.0461   -0.6113 C   0  0  0  0  0  0  0  0  0  0  0  0
   -4.6989   -2.2697    0.5830 C   0  0  0  0  0  0  0  0  0  0  0  0
    0.0649    2.0328    0.4590 C   0  0  0  0  0  0  0  0  0  0  0  0
    8.5935   -1.2500    0.7179 C   0  0  0  0  0  0  0  0  0  0  0  0
   -2.2230    1.9819    0.6640 C   0  0  0  0  0  0  0  0  0  0  0  0
   -7.6804    1.5269   -0.7613 C   0  0  0  0  0  0  0  0  0  0  0  0
    3.7649   -0.7404    0.4726 H   0  0  0  0  0  0  0  0  0  0  0  0
    4.8474    1.6564    0.5952 H   0  0  0  0  0  0  0  0  0  0  0  0
    5.1428    1.5091   -1.1101 H   0  0  0  0  0  0  0  0  0  0  0  0
    2.4394    1.6951   -0.7850 H   0  0  0  0  0  0  0  0  0  0  0  0
    2.5722    1.2934    0.9592 H   0  0  0  0  0  0  0  0  0  0  0  0
    2.7411   -1.3770   -1.6625 H   0  0  0  0  0  0  0  0  0  0  0  0
    4.4885   -1.4355   -1.7379 H   0  0  0  0  0  0  0  0  0  0  0  0
    3.5538   -0.4598   -3.6679 H   0  0  0  0  0  0  0  0  0  0  0  0
    2.7933    0.7015   -2.8162 H   0  0  0  0  0  0  0  0  0  0  0  0
    6.0152    0.3304    2.2628 H   0  0  0  0  0  0  0  0  0  0  0  0
    6.7797   -0.1889   -1.9492 H   0  0  0  0  0  0  0  0  0  0  0  0
   -4.7133    1.7082   -0.3327 H   0  0  0  0  0  0  0  0  0  0  0  0
   -1.0362   -1.0598   -0.2314 H   0  0  0  0  0  0  0  0  0  0  0  0
   -2.6236   -1.9716    0.9023 H   0  0  0  0  0  0  0  0  0  0  0  0
   -4.6811   -3.3230    0.8298 H   0  0  0  0  0  0  0  0  0  0  0  0
    8.0854   -0.9115    2.7835 H   0  0  0  0  0  0  0  0  0  0  0  0
    8.8435   -1.4331   -1.4138 H   0  0  0  0  0  0  0  0  0  0  0  0
    0.9333    2.6767    0.5315 H   0  0  0  0  0  0  0  0  0  0  0  0
    9.5029   -1.7965    0.9500 H   0  0  0  0  0  0  0  0  0  0  0  0
   -3.1018    2.5644    0.9224 H   0  0  0  0  0  0  0  0  0  0  0  0
   -8.8286   -0.9964   -0.3888 H   0  0  0  0  0  0  0  0  0  0  0  0
   -7.2397    1.8877   -1.6963 H   0  0  0  0  0  0  0  0  0  0  0  0
   -8.7623    1.4475   -0.9102 H   0  0  0  0  0  0  0  0  0  0  0  0
   -7.5043    2.2806    0.0131 H   0  0  0  0  0  0  0  0  0  0  0  0
  1  8  1  0  0  0  0
  1 13  1  0  0  0  0
  2  9  1  0  0  0  0
  2 36  1  0  0  0  0
  2 37  1  0  0  0  0
  3  4  1  0  0  0  0
  3 20  1  0  0  0  0
  3 49  1  0  0  0  0
  4 18  2  0  0  0  0
  5 25  1  0  0  0  0
  5 27  2  0  0  0  0
  6  7  1  0  0  0  0
  6  8  1  0  0  0  0
  6  9  1  0  0  0  0
  6 29  1  0  0  0  0
  7 10  1  0  0  0  0
  7 30  1  0  0  0  0
  7 31  1  0  0  0  0
  8 32  1  0  0  0  0
  8 33  1  0  0  0  0
  9 34  1  0  0  0  0
  9 35  1  0  0  0  0
 10 11  2  0  0  0  0
 10 12  1  0  0  0  0
 11 22  1  0  0  0  0
 11 38  1  0  0  0  0
 12 23  2  0  0  0  0
 12 39  1  0  0  0  0
 13 19  1  0  0  0  0
 13 25  2  0  0  0  0
 14 17  1  0  0  0  0
 14 18  1  0  0  0  0
 14 20  2  0  0  0  0
 15 16  1  0  0  0  0
 15 17  2  0  0  0  0
 15 21  1  0  0  0  0
 16 19  2  0  0  0  0
 16 27  1  0  0  0  0
 17 40  1  0  0  0  0
 18 24  1  0  0  0  0
 19 41  1  0  0  0  0
 20 28  1  0  0  0  0
 21 24  2  0  0  0  0
 21 42  1  0  0  0  0
 22 26  2  0  0  0  0
 22 44  1  0  0  0  0
 23 26  1  0  0  0  0
 23 45  1  0  0  0  0
 24 43  1  0  0  0  0
 25 46  1  0  0  0  0
 26 47  1  0  0  0  0
 27 48  1  0  0  0  0
 28 50  1  0  0  0  0
 28 51  1  0  0  0  0
 28 52  1  0  0  0  0
M  END
> <PUBCHEM_COMPOUND_CID>
22607336

> <PUBCHEM_CONFORMER_RMSD>
1.2

> <PUBCHEM_CONFORMER_DIVERSEORDER>
3
24
71
121
119
17
87
47
16
7
54
65
69
42
12
73
38
80
105
20
8
25
85
70
49
60
67
99
112
55
83
93
118
64
117
74
79
98
35
97
57
52
72
62
76
94
88
28
13
53
111
116
63
113
31
14
27
37
46
101
36
104
77
43
2
102
41
106
107
1
58
29
11
120
21
10
61
75
81
108
40
51
91
66
15
50
6
95
56
115
59
34
26
48
4
86
92
90
18
33
19
32
39
45
9
89
84
114
100
110
44
22
5
82
103
109
30
68
96
78
23

> <PUBCHEM_MMFF94_PARTIAL_CHARGES>
38
1 -0.36
10 -0.14
11 -0.15
12 -0.15
13 0.08
17 -0.15
18 0.29
19 -0.15
2 -0.99
20 -0.33
21 -0.15
22 -0.15
23 -0.15
24 -0.15
25 0.16
26 -0.15
27 0.16
28 0.18
3 0.3
36 0.36
37 0.36
38 0.15
39 0.15
4 -0.71
40 0.15
41 0.15
42 0.15
43 0.15
44 0.15
45 0.15
46 0.15
47 0.15
48 0.15
49 0.27
5 -0.62
7 0.14
8 0.28
9 0.27

> <PUBCHEM_EFFECTIVE_ROTOR_COUNT>
7

> <PUBCHEM_PHARMACOPHORE_FEATURES>
10
1 1 acceptor
1 2 cation
1 2 donor
1 3 donor
1 4 acceptor
1 5 acceptor
5 3 4 14 18 20 rings
6 10 11 12 22 23 26 rings
6 14 15 17 18 21 24 rings
6 5 13 16 19 25 27 rings

> <PUBCHEM_HEAVY_ATOM_COUNT>
28

> <PUBCHEM_ATOM_DEF_STEREO_COUNT>
0

> <PUBCHEM_ATOM_UDEF_STEREO_COUNT>
1

> <PUBCHEM_BOND_DEF_STEREO_COUNT>
0

> <PUBCHEM_BOND_UDEF_STEREO_COUNT>
0

> <PUBCHEM_ISOTOPIC_ATOM_COUNT>
0

> <PUBCHEM_COMPONENT_COUNT>
1

> <PUBCHEM_CACTVS_TAUTO_COUNT>
2

> <PUBCHEM_CONFORMER_ID>
0158F5E800000003

> <PUBCHEM_MMFF94_ENERGY>
88.6401

> <PUBCHEM_FEATURE_SELFOVERLAP>
50.879

> <PUBCHEM_SHAPE_FINGERPRINT>
10 15 17846493756275008512
10299344 5 17603584131789989490
10369192 42 10737280256129027219
106641 1 13254794659732022869
11135926 11 18409162187195914407
11315181 36 18272656770603504689
11386260 185 14779553430505603958
11646440 116 16630526229193408864
11719270 70 18342740715521292134
12082328 90 16226052197649451851
12166972 35 17748829635722060532
12202916 173 18272933829921864151
12516196 113 17989210360622086529
12643181 29 18410291420039368643
12838862 33 18059280003287715839
13073987 5 16414929539005172080
13177829 20 14476961202884318399
13885169 127 18410009914644465513
13914758 101 17022618650435862044
14068700 675 18260832604756774284
14150022 121 16773805757624014825
14294032 229 17677889024880725029
14461889 52 17917712383880191966
14849402 71 12966834776236658090
15119646 104 17385718071926232114
15131766 46 17681563855102815228
15183329 4 14056996118569809228
15188451 53 18334294258743399352
15230672 131 18114174251065915827
15419008 91 18339622512781455256
15461852 350 18187931642888141756
15706992 2 14201667630509236359
21623969 137 17203335498468725348
21792934 111 17989200451758372016
21792961 116 18261110773768319705
22224240 67 15913608371924919524
23559900 14 18268425905889933569
23576562 1 13118581704253244795
249057 25 18041574572104909204
249057 3 15430040976080198394
3004659 81 18186518838538172049
335352 9 18409443688453722445
3383291 50 18271811250103998595
3633792 109 16877666777662503116
4098825 35 16950554450727338975
5085150 59 18410293626930469954
5104073 3 17416698951270059714
5283156 175 18187082845459418296
5758199 1 12895355499354718780
58902169 19 17167868590251232039
59682541 35 17703784843407489586
59682541 52 14851601073520433482
5969126 39 18202279178524808765
6126387 218 16845574189358156105
6138700 20 18410012152554425123
6698420 124 14418141695013375693
6703917 75 8358259284551062929
9689198 14 10087642615361263500
9953998 17 15697997453206513103

> <PUBCHEM_SHAPE_MULTIPOLES>
550.43
28.57
1.96
1.3
16.88
0.21
-0.55
-11.7
0.75
-2.96
0.45
2.68
-0.07
0.22

> <PUBCHEM_SHAPE_SELFOVERLAP>
1199.978

> <PUBCHEM_SHAPE_VOLUME>
298.4

> <PUBCHEM_COORDINATE_TYPE>
2
5
10

$$$$
