24905203
  -OEChem-10052115163D

 37 40  0     0  0  0  0  0  0999 V2000
   -2.4039   -1.0262    0.0421 N   0  0  0  0  0  0  0  0  0  0  0  0
   -1.1195   -1.4014   -0.1034 N   0  0  0  0  0  0  0  0  0  0  0  0
   -3.7336    0.9882    0.2334 N   0  0  0  0  0  0  0  0  0  0  0  0
    4.2116   -0.2838    1.5193 N   0  0  0  0  0  0  0  0  0  0  0  0
   -2.3499    2.9948    0.1371 N   0  0  0  0  0  0  0  0  0  0  0  0
    0.0220    2.9151   -0.1173 N   0  0  0  0  0  0  0  0  0  0  0  0
    5.4202   -0.2694    0.9331 N   0  0  0  0  0  0  0  0  0  0  0  0
   -3.4346   -2.0337    0.1259 C   0  0  0  0  0  0  0  0  0  0  0  0
   -1.3101    0.8748   -0.0261 C   0  0  0  0  0  0  0  0  0  0  0  0
   -0.4583   -0.2393   -0.1443 C   0  0  0  0  0  0  0  0  0  0  0  0
   -2.5745    0.3253    0.0941 C   0  0  0  0  0  0  0  0  0  0  0  0
    0.9709   -0.2355   -0.2954 C   0  0  0  0  0  0  0  0  0  0  0  0
   -3.2461   -2.9312    1.3514 C   0  0  0  0  0  0  0  0  0  0  0  0
   -3.5114   -2.8685   -1.1548 C   0  0  0  0  0  0  0  0  0  0  0  0
   -1.2187    2.2625   -0.0010 C   0  0  0  0  0  0  0  0  0  0  0  0
    1.7801   -0.2650    0.8451 C   0  0  0  0  0  0  0  0  0  0  0  0
    3.1617   -0.2607    0.6413 C   0  0  0  0  0  0  0  0  0  0  0  0
    1.5270   -0.2033   -1.5756 C   0  0  0  0  0  0  0  0  0  0  0  0
    3.7416   -0.2290   -0.6219 C   0  0  0  0  0  0  0  0  0  0  0  0
    2.9156   -0.1995   -1.7579 C   0  0  0  0  0  0  0  0  0  0  0  0
   -3.5204    2.3217    0.2443 C   0  0  0  0  0  0  0  0  0  0  0  0
    5.1304   -0.2362   -0.3695 C   0  0  0  0  0  0  0  0  0  0  0  0
   -4.3926   -1.5124    0.2403 H   0  0  0  0  0  0  0  0  0  0  0  0
   -3.1996   -2.3336    2.2686 H   0  0  0  0  0  0  0  0  0  0  0  0
   -2.3213   -3.5152    1.2878 H   0  0  0  0  0  0  0  0  0  0  0  0
   -4.0809   -3.6334    1.4483 H   0  0  0  0  0  0  0  0  0  0  0  0
   -2.5967   -3.4501   -1.3149 H   0  0  0  0  0  0  0  0  0  0  0  0
   -3.6545   -2.2261   -2.0308 H   0  0  0  0  0  0  0  0  0  0  0  0
   -4.3516   -3.5693   -1.1094 H   0  0  0  0  0  0  0  0  0  0  0  0
    1.3635   -0.2899    1.8472 H   0  0  0  0  0  0  0  0  0  0  0  0
    0.8876   -0.1800   -2.4561 H   0  0  0  0  0  0  0  0  0  0  0  0
    3.3367   -0.1741   -2.7583 H   0  0  0  0  0  0  0  0  0  0  0  0
   -4.4061    2.9383    0.3536 H   0  0  0  0  0  0  0  0  0  0  0  0
    4.1712   -0.3094    2.5306 H   0  0  0  0  0  0  0  0  0  0  0  0
    5.9425   -0.2184   -1.0827 H   0  0  0  0  0  0  0  0  0  0  0  0
    0.8816    2.3962   -0.2209 H   0  0  0  0  0  0  0  0  0  0  0  0
    0.0436    3.9258   -0.0941 H   0  0  0  0  0  0  0  0  0  0  0  0
  1  2  1  0  0  0  0
  1  8  1  0  0  0  0
  1 11  1  0  0  0  0
  2 10  2  0  0  0  0
  3 11  2  0  0  0  0
  3 21  1  0  0  0  0
  4  7  1  0  0  0  0
  4 17  1  0  0  0  0
  4 34  1  0  0  0  0
  5 15  1  0  0  0  0
  5 21  2  0  0  0  0
  6 15  1  0  0  0  0
  6 36  1  0  0  0  0
  6 37  1  0  0  0  0
  7 22  2  0  0  0  0
  8 13  1  0  0  0  0
  8 14  1  0  0  0  0
  8 23  1  0  0  0  0
  9 10  1  0  0  0  0
  9 11  1  0  0  0  0
  9 15  2  0  0  0  0
 10 12  1  0  0  0  0
 12 16  2  0  0  0  0
 12 18  1  0  0  0  0
 13 24  1  0  0  0  0
 13 25  1  0  0  0  0
 13 26  1  0  0  0  0
 14 27  1  0  0  0  0
 14 28  1  0  0  0  0
 14 29  1  0  0  0  0
 16 17  1  0  0  0  0
 16 30  1  0  0  0  0
 17 19  2  0  0  0  0
 18 20  2  0  0  0  0
 18 31  1  0  0  0  0
 19 20  1  0  0  0  0
 19 22  1  0  0  0  0
 20 32  1  0  0  0  0
 21 33  1  0  0  0  0
 22 35  1  0  0  0  0
M  END
> <PUBCHEM_COMPOUND_CID>
24905203

> <PUBCHEM_CONFORMER_RMSD>
0.6

> <PUBCHEM_CONFORMER_DIVERSEORDER>
1
3
6
4
5
2

> <PUBCHEM_MMFF94_PARTIAL_CHARGES>
26
1 0.31
10 0.23
11 0.11
12 0.05
15 0.41
16 -0.15
17 -0.15
18 -0.15
2 -0.71
20 -0.15
21 0.47
22 0.14
3 -0.57
30 0.15
31 0.15
32 0.15
33 0.15
34 0.27
35 0.15
36 0.4
37 0.4
4 0.3
5 -0.62
6 -0.9
7 -0.71
8 0.26

> <PUBCHEM_EFFECTIVE_ROTOR_COUNT>
2

> <PUBCHEM_PHARMACOPHORE_FEATURES>
12
1 2 acceptor
1 4 donor
1 6 cation
1 6 donor
1 7 acceptor
3 1 3 11 cation
3 3 5 21 cation
3 8 13 14 hydrophobe
5 1 2 9 10 11 rings
5 4 7 17 19 22 rings
6 12 16 17 18 19 20 rings
6 3 5 9 11 15 21 rings

> <PUBCHEM_HEAVY_ATOM_COUNT>
22

> <PUBCHEM_ATOM_DEF_STEREO_COUNT>
0

> <PUBCHEM_ATOM_UDEF_STEREO_COUNT>
0

> <PUBCHEM_BOND_DEF_STEREO_COUNT>
0

> <PUBCHEM_BOND_UDEF_STEREO_COUNT>
0

> <PUBCHEM_ISOTOPIC_ATOM_COUNT>
0

> <PUBCHEM_COMPONENT_COUNT>
1

> <PUBCHEM_CACTVS_TAUTO_COUNT>
14

> <PUBCHEM_CONFORMER_ID>
017C05F300000001

> <PUBCHEM_MMFF94_ENERGY>
46.1425

> <PUBCHEM_FEATURE_SELFOVERLAP>
61.266

> <PUBCHEM_SHAPE_FINGERPRINT>
10319926 262 18270665490932478978
10411042 1 18194964269652090031
1100329 8 18409172125686979313
11265709 11 18339358699300381799
11315181 36 17967812782451474882
11370993 144 17059795324582792915
11545043 162 18273218578190797726
12035758 1 18270415936078573257
12107183 9 17685766931446130098
12173636 292 18051133592810045373
12236239 1 17676492722279415284
12363563 72 18266463302871439335
12403259 415 17632859737740463582
12553582 1 18195260025110385919
12616971 3 17167585969029565854
12788726 201 18043835261867725178
13083527 12 17841703308007457183
13140716 1 18339369681547465321
13583140 156 17917419905244982110
13965767 371 17105947110621919996
14081887 123 18342736286734224360
14178342 30 18335143046706585678
14420673 8 17977664213458746146
14739800 52 18264768939054142412
14844126 61 18408880763278887227
15042514 8 18336555953934881379
15099037 37 18343301491503420990
16945 1 18338806628456747877
17349148 13 17603305972913192298
17357779 13 17987782129593355735
1813 80 18127704931203778087
18186145 218 12107783016849342694
18927931 339 18413394245536217934
200 152 17168137966331416934
20905425 154 18125171681872164197
21033648 29 17489293180007134722
21065201 7 18341056224957602110
21304303 282 17974820940491138637
21728266 224 18335409175817856330
23184049 29 18337957921180523189
23366157 5 17826802726296721597
23402539 116 18411974776019211390
23419403 2 17903042828201320005
23557571 272 18272660025703294716
23559900 14 18199760137587724742
2748010 2 18268707402172383005
312423 11 18114475560026850228
3178227 256 18263377932412040241
474 4 17096951246270780844
5104073 3 18411416228913554320
573450 72 18261106353455830762
7097593 13 17970338210015004442
7471813 234 18193268813482850230
7615 1 17749400290297703940
77492 1 17676497128936869244
7970288 3 18192997247165730467
81228 2 18339935852678599779
9709674 26 18200599077275102246

> <PUBCHEM_SHAPE_MULTIPOLES>
417.88
9.37
3.01
1.23
9.04
0.81
-0.15
-3.03
1.42
-5.7
0.19
0.89
-0.56
-0.15

> <PUBCHEM_SHAPE_SELFOVERLAP>
938.631

> <PUBCHEM_SHAPE_VOLUME>
219

> <PUBCHEM_COORDINATE_TYPE>
2
5
10

$$$$
