49830782
  -OEChem-10052115183D

 27 29  0     0  0  0  0  0  0999 V2000
    4.9797    0.3700   -0.0002 F   0  0  0  0  0  0  0  0  0  0  0  0
   -3.4304    1.1263   -0.0002 N   0  0  0  0  0  0  0  0  0  0  0  0
   -2.6181    2.1964    0.0003 N   0  0  0  0  0  0  0  0  0  0  0  0
   -0.2391    2.3681    0.0008 N   0  0  0  0  0  0  0  0  0  0  0  0
   -1.4226    0.2449    0.0003 C   0  0  0  0  0  0  0  0  0  0  0  0
   -0.4708   -0.7882    0.0003 C   0  0  0  0  0  0  0  0  0  0  0  0
   -2.7755   -0.0755   -0.0002 C   0  0  0  0  0  0  0  0  0  0  0  0
    0.9407   -0.4872   -0.0002 C   0  0  0  0  0  0  0  0  0  0  0  0
   -1.3974    1.6563    0.0008 C   0  0  0  0  0  0  0  0  0  0  0  0
   -0.9223   -2.1139   -0.0001 C   0  0  0  0  0  0  0  0  0  0  0  0
   -3.2468   -1.3902   -0.0005 C   0  0  0  0  0  0  0  0  0  0  0  0
   -2.2871   -2.4078   -0.0006 C   0  0  0  0  0  0  0  0  0  0  0  0
    1.6226   -0.3412   -1.2081 C   0  0  0  0  0  0  0  0  0  0  0  0
    1.6231   -0.3436    1.2079 C   0  0  0  0  0  0  0  0  0  0  0  0
    2.9871   -0.0517   -1.2082 C   0  0  0  0  0  0  0  0  0  0  0  0
    2.9876   -0.0543    1.2080 C   0  0  0  0  0  0  0  0  0  0  0  0
    3.6696    0.0917   -0.0001 C   0  0  0  0  0  0  0  0  0  0  0  0
   -0.2106   -2.9372   -0.0003 H   0  0  0  0  0  0  0  0  0  0  0  0
   -4.3072   -1.6163   -0.0008 H   0  0  0  0  0  0  0  0  0  0  0  0
   -4.4302    1.2855   -0.0005 H   0  0  0  0  0  0  0  0  0  0  0  0
   -2.6110   -3.4456   -0.0010 H   0  0  0  0  0  0  0  0  0  0  0  0
    1.1057   -0.4494   -2.1588 H   0  0  0  0  0  0  0  0  0  0  0  0
    1.1065   -0.4536    2.1585 H   0  0  0  0  0  0  0  0  0  0  0  0
    3.5184    0.0623   -2.1484 H   0  0  0  0  0  0  0  0  0  0  0  0
    3.5193    0.0580    2.1482 H   0  0  0  0  0  0  0  0  0  0  0  0
    0.6890    1.9645    0.0011 H   0  0  0  0  0  0  0  0  0  0  0  0
   -0.2503    3.3837    0.0007 H   0  0  0  0  0  0  0  0  0  0  0  0
  1 17  1  0  0  0  0
  2  3  1  0  0  0  0
  2  7  1  0  0  0  0
  2 20  1  0  0  0  0
  3  9  2  0  0  0  0
  4  9  1  0  0  0  0
  4 26  1  0  0  0  0
  4 27  1  0  0  0  0
  5  6  2  0  0  0  0
  5  7  1  0  0  0  0
  5  9  1  0  0  0  0
  6  8  1  0  0  0  0
  6 10  1  0  0  0  0
  7 11  2  0  0  0  0
  8 13  2  0  0  0  0
  8 14  1  0  0  0  0
 10 12  2  0  0  0  0
 10 18  1  0  0  0  0
 11 12  1  0  0  0  0
 11 19  1  0  0  0  0
 12 21  1  0  0  0  0
 13 15  1  0  0  0  0
 13 22  1  0  0  0  0
 14 16  2  0  0  0  0
 14 23  1  0  0  0  0
 15 17  2  0  0  0  0
 15 24  1  0  0  0  0
 16 17  1  0  0  0  0
 16 25  1  0  0  0  0
M  END
> <PUBCHEM_COMPOUND_CID>
49830782

> <PUBCHEM_CONFORMER_RMSD>
0.6

> <PUBCHEM_CONFORMER_DIVERSEORDER>
1

> <PUBCHEM_MMFF94_PARTIAL_CHARGES>
24
1 -0.19
10 -0.15
11 -0.15
12 -0.15
13 -0.15
14 -0.15
15 -0.15
16 -0.15
17 0.19
18 0.15
19 0.15
2 0.3
20 0.27
21 0.15
22 0.15
23 0.15
24 0.15
25 0.15
26 0.4
27 0.4
3 -0.71
4 -0.88
7 -0.15
9 0.37

> <PUBCHEM_EFFECTIVE_ROTOR_COUNT>
1

> <PUBCHEM_PHARMACOPHORE_FEATURES>
6
1 2 donor
1 4 donor
3 3 4 9 cation
5 2 3 5 7 9 rings
6 5 6 7 10 11 12 rings
6 8 13 14 15 16 17 rings

> <PUBCHEM_HEAVY_ATOM_COUNT>
17

> <PUBCHEM_ATOM_DEF_STEREO_COUNT>
0

> <PUBCHEM_ATOM_UDEF_STEREO_COUNT>
0

> <PUBCHEM_BOND_DEF_STEREO_COUNT>
0

> <PUBCHEM_BOND_UDEF_STEREO_COUNT>
0

> <PUBCHEM_ISOTOPIC_ATOM_COUNT>
0

> <PUBCHEM_COMPONENT_COUNT>
1

> <PUBCHEM_CACTVS_TAUTO_COUNT>
13

> <PUBCHEM_CONFORMER_ID>
02F85B7E00000001

> <PUBCHEM_MMFF94_ENERGY>
43.1479

> <PUBCHEM_FEATURE_SELFOVERLAP>
30.537

> <PUBCHEM_SHAPE_FINGERPRINT>
10493431 412 18270411469128501609
10498660 4 18410291376340700557
10608611 8 18273210915494063360
10989021 7 18123751121781344467
11132069 177 18411421695905793853
11640471 11 17749398031071169788
12173636 292 18338797797676907557
12236239 1 17676486159506187378
13140716 1 18194690499841200211
13538477 17 18187358826930461578
13764800 53 18339086999310157673
14614273 12 18188204287285218421
15219456 202 17917716777346990358
15669948 3 18408878551117229315
15775835 57 18187646855995682464
16752209 62 18335972138851312655
16945 1 18410574011406856903
17357779 13 17986372581419596295
18186145 218 17917160385713580326
19049666 15 17916595219573014558
19868273 325 18409167748618873695
200 152 15936402381539706587
20510252 161 18342742896899837665
22802520 49 17987250931826965766
2297311 6 18341065102533566806
23175994 123 16988853786808294896
2334 1 17834113426680972011
23402539 116 18341323465842929838
23419403 2 17687144958380410333
23557571 272 18272378598234922820
23559900 14 18271811169026484782
23598294 1 18335974328841496555
2748010 2 18122897900953252183
350125 39 17690006639329032081
474 4 17096940281166370532
7097593 13 17826773877212138050
7364860 26 17839181062471888457
77492 1 17676205779756673698
81228 2 18411708711648896283
9709674 26 18342746195604208254

> <PUBCHEM_SHAPE_MULTIPOLES>
327.64
6.64
2.16
0.96
4.93
0.35
0
0.26
0
-2.52
0
0.85
-0.09
0

> <PUBCHEM_SHAPE_SELFOVERLAP>
739.41

> <PUBCHEM_SHAPE_VOLUME>
174.4

> <PUBCHEM_COORDINATE_TYPE>
2
5
10

$$$$
