49830954
  -OEChem-10052120443D

 36 37  0     0  0  0  0  0  0999 V2000
   -0.7794    1.0940    0.7498 S   0  0  0  0  0  0  0  0  0  0  0  0
    1.8628    2.3449   -0.5915 O   0  0  0  0  0  0  0  0  0  0  0  0
   -3.1242   -0.2028    0.6412 N   0  0  0  0  0  0  0  0  0  0  0  0
   -1.3295   -0.9360   -0.7532 N   0  0  0  0  0  0  0  0  0  0  0  0
    0.7179   -1.2621   -1.9069 N   0  0  0  0  0  0  0  0  0  0  0  0
   -5.5028   -0.7627    0.5853 C   0  0  0  0  0  0  0  0  0  0  0  0
   -4.0860   -1.1878    0.2087 C   0  0  0  0  0  0  0  0  0  0  0  0
   -5.9237    0.5473   -0.0854 C   0  0  0  0  0  0  0  0  0  0  0  0
   -1.8289   -0.1259    0.1537 C   0  0  0  0  0  0  0  0  0  0  0  0
   -7.3608    0.9095    0.2567 C   0  0  0  0  0  0  0  0  0  0  0  0
    0.4551    0.5026   -0.2836 C   0  0  0  0  0  0  0  0  0  0  0  0
   -0.0201   -0.5741   -1.0025 C   0  0  0  0  0  0  0  0  0  0  0  0
    1.7335    1.1342   -0.2891 C   0  0  0  0  0  0  0  0  0  0  0  0
    3.0145    0.4164    0.0610 C   0  0  0  0  0  0  0  0  0  0  0  0
    4.2287    1.1023    0.0333 C   0  0  0  0  0  0  0  0  0  0  0  0
    2.9834   -0.9326    0.4138 C   0  0  0  0  0  0  0  0  0  0  0  0
    5.4121    0.4389    0.3584 C   0  0  0  0  0  0  0  0  0  0  0  0
    4.1665   -1.5960    0.7390 C   0  0  0  0  0  0  0  0  0  0  0  0
    5.3809   -0.9101    0.7112 C   0  0  0  0  0  0  0  0  0  0  0  0
   -5.5784   -0.6542    1.6746 H   0  0  0  0  0  0  0  0  0  0  0  0
   -6.1969   -1.5607    0.2949 H   0  0  0  0  0  0  0  0  0  0  0  0
   -4.0304   -1.3292   -0.8775 H   0  0  0  0  0  0  0  0  0  0  0  0
   -3.8571   -2.1505    0.6794 H   0  0  0  0  0  0  0  0  0  0  0  0
   -5.8271    0.4546   -1.1735 H   0  0  0  0  0  0  0  0  0  0  0  0
   -5.2705    1.3686    0.2294 H   0  0  0  0  0  0  0  0  0  0  0  0
   -3.4076    0.4382    1.3776 H   0  0  0  0  0  0  0  0  0  0  0  0
   -8.0525    0.1301   -0.0786 H   0  0  0  0  0  0  0  0  0  0  0  0
   -7.6423    1.8468   -0.2333 H   0  0  0  0  0  0  0  0  0  0  0  0
   -7.4858    1.0394    1.3364 H   0  0  0  0  0  0  0  0  0  0  0  0
    4.2832    2.1531   -0.2373 H   0  0  0  0  0  0  0  0  0  0  0  0
    2.0621   -1.4999    0.4840 H   0  0  0  0  0  0  0  0  0  0  0  0
    0.3374   -2.0544   -2.4150 H   0  0  0  0  0  0  0  0  0  0  0  0
    1.6749   -1.0208   -2.1448 H   0  0  0  0  0  0  0  0  0  0  0  0
    6.3577    0.9728    0.3375 H   0  0  0  0  0  0  0  0  0  0  0  0
    4.1420   -2.6445    1.0215 H   0  0  0  0  0  0  0  0  0  0  0  0
    6.3019   -1.4262    0.9661 H   0  0  0  0  0  0  0  0  0  0  0  0
  1  9  1  0  0  0  0
  1 11  1  0  0  0  0
  2 13  2  0  0  0  0
  3  7  1  0  0  0  0
  3  9  1  0  0  0  0
  3 26  1  0  0  0  0
  4  9  2  0  0  0  0
  4 12  1  0  0  0  0
  5 12  1  0  0  0  0
  5 32  1  0  0  0  0
  5 33  1  0  0  0  0
  6  7  1  0  0  0  0
  6  8  1  0  0  0  0
  6 20  1  0  0  0  0
  6 21  1  0  0  0  0
  7 22  1  0  0  0  0
  7 23  1  0  0  0  0
  8 10  1  0  0  0  0
  8 24  1  0  0  0  0
  8 25  1  0  0  0  0
 10 27  1  0  0  0  0
 10 28  1  0  0  0  0
 10 29  1  0  0  0  0
 11 12  2  0  0  0  0
 11 13  1  0  0  0  0
 13 14  1  0  0  0  0
 14 15  2  0  0  0  0
 14 16  1  0  0  0  0
 15 17  1  0  0  0  0
 15 30  1  0  0  0  0
 16 18  2  0  0  0  0
 16 31  1  0  0  0  0
 17 19  2  0  0  0  0
 17 34  1  0  0  0  0
 18 19  1  0  0  0  0
 18 35  1  0  0  0  0
 19 36  1  0  0  0  0
M  END
> <PUBCHEM_COMPOUND_CID>
49830954

> <PUBCHEM_CONFORMER_RMSD>
0.8

> <PUBCHEM_CONFORMER_DIVERSEORDER>
1
22
14
32
21
37
17
40
28
24
27
30
38
36
23
20
9
3
19
25
12
10
34
35
29
13
4
15
18
33
11
16
8
7
39
31
6
26
2
5

> <PUBCHEM_MMFF94_PARTIAL_CHARGES>
24
1 -0.08
11 -0.05
12 0.31
13 0.57
14 0.09
15 -0.15
16 -0.15
17 -0.15
18 -0.15
19 -0.15
2 -0.57
26 0.4
3 -0.85
30 0.15
31 0.15
32 0.4
33 0.4
34 0.15
35 0.15
36 0.15
4 -0.57
5 -0.88
7 0.37
9 0.46

> <PUBCHEM_EFFECTIVE_ROTOR_COUNT>
6

> <PUBCHEM_PHARMACOPHORE_FEATURES>
8
1 10 hydrophobe
1 2 acceptor
1 3 donor
1 5 cation
1 5 donor
3 3 4 9 cation
5 1 4 9 11 12 rings
6 14 15 16 17 18 19 rings

> <PUBCHEM_HEAVY_ATOM_COUNT>
19

> <PUBCHEM_ATOM_DEF_STEREO_COUNT>
0

> <PUBCHEM_ATOM_UDEF_STEREO_COUNT>
0

> <PUBCHEM_BOND_DEF_STEREO_COUNT>
0

> <PUBCHEM_BOND_UDEF_STEREO_COUNT>
0

> <PUBCHEM_ISOTOPIC_ATOM_COUNT>
0

> <PUBCHEM_COMPONENT_COUNT>
1

> <PUBCHEM_CACTVS_TAUTO_COUNT>
8

> <PUBCHEM_CONFORMER_ID>
02F85C2A00000001

> <PUBCHEM_MMFF94_ENERGY>
40.1051

> <PUBCHEM_FEATURE_SELFOVERLAP>
40.595

> <PUBCHEM_SHAPE_FINGERPRINT>
11089746 13 16988839489073240913
11796584 16 17894915143917846203
12236239 1 18343300404961032490
12596602 18 18131067190411245850
12730499 353 11600007669354021068
13533116 47 18409727327202764354
14123256 10 10447925075403209633
14251718 22 11024107647080601689
14251764 18 18410576206577984083
14341114 176 18334017193975337323
14573314 32 17240754069426614303
15142383 8 17968088699244716981
15183329 4 18040990727203384705
15342168 16 12463271653660476010
15375462 189 18341322362848380064
15527383 91 18113336427072703684
19141452 34 17603587469206678883
20281389 69 18260548918789413737
20567600 75 17748819688181891039
21054139 6 15984810563571190861
21267235 1 18408887300914995178
21521721 280 7925619029705814143
22224240 67 16988554710596967774
23035841 295 13118001098232250833
23402539 116 18341889719295835229
23536379 177 18187364329279362201
23559900 14 18114462365555260897
23622692 88 18272369789135673142
26918003 58 18334859437199415043
2767999 5 16988843874039567379
4072396 5 17989205928062661343
4073 2 17604717797039921403
42630746 31 17418098689200724470
465052 167 18410017658248980134
5104073 3 18199475535806296435
5207 217 11239992373831918187
59755656 215 17703801283851403846
8272917 22 18334297582478491222

> <PUBCHEM_SHAPE_MULTIPOLES>
374.05
15.27
1.6
1.01
19.58
0.27
0.29
0.03
-3.98
-0.88
0.08
-0.18
-0.25
-0.44

> <PUBCHEM_SHAPE_SELFOVERLAP>
770.496

> <PUBCHEM_SHAPE_VOLUME>
216.2

> <PUBCHEM_COORDINATE_TYPE>
2
5
10

$$$$
