24905153
  -OEChem-10052115143D

 43 46  0     0  0  0  0  0  0999 V2000
   -3.7540    0.7953   -2.0038 O   0  0  0  0  0  0  0  0  0  0  0  0
   -5.1197    0.6682    0.4135 O   0  0  0  0  0  0  0  0  0  0  0  0
    2.4691    0.6375    0.3441 N   0  0  0  0  0  0  0  0  0  0  0  0
    1.2256    1.1481    0.4122 N   0  0  0  0  0  0  0  0  0  0  0  0
    3.5820   -1.4979    0.0909 N   0  0  0  0  0  0  0  0  0  0  0  0
    1.9838   -3.3302   -0.1065 N   0  0  0  0  0  0  0  0  0  0  0  0
   -0.3784   -2.9926   -0.0516 N   0  0  0  0  0  0  0  0  0  0  0  0
    3.6558    1.4704    0.4302 C   0  0  0  0  0  0  0  0  0  0  0  0
    4.3875    1.6008   -0.9219 C   0  0  0  0  0  0  0  0  0  0  0  0
    3.3338    2.9748    0.3141 C   0  0  0  0  0  0  0  0  0  0  0  0
    4.5816    3.0942   -0.5853 C   0  0  0  0  0  0  0  0  0  0  0  0
    2.4946   -0.7167    0.1889 C   0  0  0  0  0  0  0  0  0  0  0  0
    1.1720   -1.1220    0.1528 C   0  0  0  0  0  0  0  0  0  0  0  0
    0.4402    0.0718    0.2950 C   0  0  0  0  0  0  0  0  0  0  0  0
   -0.9924    0.2249    0.3226 C   0  0  0  0  0  0  0  0  0  0  0  0
    0.9316   -2.4832   -0.0013 C   0  0  0  0  0  0  0  0  0  0  0  0
    3.2258   -2.7926   -0.0545 C   0  0  0  0  0  0  0  0  0  0  0  0
   -1.6935    0.4379   -0.8643 C   0  0  0  0  0  0  0  0  0  0  0  0
   -1.6780    0.1610    1.5356 C   0  0  0  0  0  0  0  0  0  0  0  0
   -3.0802    0.5870   -0.8382 C   0  0  0  0  0  0  0  0  0  0  0  0
   -3.0646    0.3104    1.5618 C   0  0  0  0  0  0  0  0  0  0  0  0
   -3.7658    0.5232    0.3749 C   0  0  0  0  0  0  0  0  0  0  0  0
   -4.2129   -0.3602   -2.7026 C   0  0  0  0  0  0  0  0  0  0  0  0
   -5.7437    0.5899    1.6935 C   0  0  0  0  0  0  0  0  0  0  0  0
    4.3064    1.2208    1.2770 H   0  0  0  0  0  0  0  0  0  0  0  0
    3.7681    1.4349   -1.8121 H   0  0  0  0  0  0  0  0  0  0  0  0
    5.3095    1.0212   -1.0206 H   0  0  0  0  0  0  0  0  0  0  0  0
    3.3792    3.5403    1.2492 H   0  0  0  0  0  0  0  0  0  0  0  0
    2.4198    3.2578   -0.2214 H   0  0  0  0  0  0  0  0  0  0  0  0
    5.5049    3.3060   -0.0340 H   0  0  0  0  0  0  0  0  0  0  0  0
    4.4997    3.7867   -1.4266 H   0  0  0  0  0  0  0  0  0  0  0  0
    4.0449   -3.4983   -0.1418 H   0  0  0  0  0  0  0  0  0  0  0  0
   -1.1670    0.4898   -1.8151 H   0  0  0  0  0  0  0  0  0  0  0  0
   -1.1451   -0.0050    2.4691 H   0  0  0  0  0  0  0  0  0  0  0  0
   -1.1818   -2.3861    0.0223 H   0  0  0  0  0  0  0  0  0  0  0  0
   -0.5085   -3.9889   -0.1658 H   0  0  0  0  0  0  0  0  0  0  0  0
   -3.5301    0.2493    2.5395 H   0  0  0  0  0  0  0  0  0  0  0  0
   -4.7333   -0.0303   -3.6058 H   0  0  0  0  0  0  0  0  0  0  0  0
   -4.9125   -0.9319   -2.0845 H   0  0  0  0  0  0  0  0  0  0  0  0
   -3.3680   -0.9915   -2.9959 H   0  0  0  0  0  0  0  0  0  0  0  0
   -6.8189    0.7263    1.5367 H   0  0  0  0  0  0  0  0  0  0  0  0
   -5.4138    1.3995    2.3535 H   0  0  0  0  0  0  0  0  0  0  0  0
   -5.6116   -0.3982    2.1472 H   0  0  0  0  0  0  0  0  0  0  0  0
  1 20  1  0  0  0  0
  1 23  1  0  0  0  0
  2 22  1  0  0  0  0
  2 24  1  0  0  0  0
  3  4  1  0  0  0  0
  3  8  1  0  0  0  0
  3 12  1  0  0  0  0
  4 14  2  0  0  0  0
  5 12  2  0  0  0  0
  5 17  1  0  0  0  0
  6 16  1  0  0  0  0
  6 17  2  0  0  0  0
  7 16  1  0  0  0  0
  7 35  1  0  0  0  0
  7 36  1  0  0  0  0
  8  9  1  0  0  0  0
  8 10  1  0  0  0  0
  8 25  1  0  0  0  0
  9 11  1  0  0  0  0
  9 26  1  0  0  0  0
  9 27  1  0  0  0  0
 10 11  1  0  0  0  0
 10 28  1  0  0  0  0
 10 29  1  0  0  0  0
 11 30  1  0  0  0  0
 11 31  1  0  0  0  0
 12 13  1  0  0  0  0
 13 14  1  0  0  0  0
 13 16  2  0  0  0  0
 14 15  1  0  0  0  0
 15 18  2  0  0  0  0
 15 19  1  0  0  0  0
 17 32  1  0  0  0  0
 18 20  1  0  0  0  0
 18 33  1  0  0  0  0
 19 21  2  0  0  0  0
 19 34  1  0  0  0  0
 20 22  2  0  0  0  0
 21 22  1  0  0  0  0
 21 37  1  0  0  0  0
 23 38  1  0  0  0  0
 23 39  1  0  0  0  0
 23 40  1  0  0  0  0
 24 41  1  0  0  0  0
 24 42  1  0  0  0  0
 24 43  1  0  0  0  0
M  END
> <PUBCHEM_COMPOUND_CID>
24905153

> <PUBCHEM_CONFORMER_RMSD>
0.8

> <PUBCHEM_CONFORMER_DIVERSEORDER>
1
11
7
8
4
10
5
6
9
3
2

> <PUBCHEM_MMFF94_PARTIAL_CHARGES>
26
1 -0.36
12 0.11
14 0.23
15 0.05
16 0.41
17 0.47
18 -0.15
19 -0.15
2 -0.36
20 0.08
21 -0.15
22 0.08
23 0.28
24 0.28
3 0.48
32 0.15
33 0.15
34 0.15
35 0.4
36 0.4
37 0.15
4 -0.71
5 -0.57
6 -0.62
7 -0.9
8 0.09

> <PUBCHEM_EFFECTIVE_ROTOR_COUNT>
4.8

> <PUBCHEM_PHARMACOPHORE_FEATURES>
11
1 1 acceptor
1 2 acceptor
1 4 acceptor
1 7 cation
1 7 donor
3 3 5 12 cation
3 5 6 17 cation
4 8 9 10 11 rings
5 3 4 12 13 14 rings
6 15 18 19 20 21 22 rings
6 5 6 12 13 16 17 rings

> <PUBCHEM_HEAVY_ATOM_COUNT>
24

> <PUBCHEM_ATOM_DEF_STEREO_COUNT>
0

> <PUBCHEM_ATOM_UDEF_STEREO_COUNT>
0

> <PUBCHEM_BOND_DEF_STEREO_COUNT>
0

> <PUBCHEM_BOND_UDEF_STEREO_COUNT>
0

> <PUBCHEM_ISOTOPIC_ATOM_COUNT>
0

> <PUBCHEM_COMPONENT_COUNT>
1

> <PUBCHEM_CACTVS_TAUTO_COUNT>
5

> <PUBCHEM_CONFORMER_ID>
017C05C100000001

> <PUBCHEM_MMFF94_ENERGY>
87.5498

> <PUBCHEM_FEATURE_SELFOVERLAP>
56.105

> <PUBCHEM_SHAPE_FINGERPRINT>
10165383 225 18264502826600228884
10411042 1 17834121844875609202
1100329 8 18411140234552983290
11049842 53 15694373290855993369
11582403 64 17316161935296992713
11725454 13 17242702438185011021
11796584 16 14261360149922517804
12236239 1 17560799883948494451
12403259 415 17749392533776768309
12616971 3 18130503046461846055
12730499 353 18336561485283085680
12788726 201 17203060586323668105
12969540 114 18336261361732884212
13134695 92 18046341938437301206
13140716 1 18410291458715219314
13583140 156 17241026748236423794
13631057 29 17984128538375207751
13911987 19 18264208195685257172
13955234 65 18409454656956249578
15342168 16 18337962284619544929
15842332 3 17846498084889899337
15961568 22 16878238553019597924
16752209 62 16199850831433433501
17134986 127 18336265764712406108
17138139 8 17483924401804291711
1813 80 17699301962423410302
18785283 64 18334580127118271474
19784866 34 18270400619698181424
204376 136 18337675329359224400
20645477 70 18335139756671674034
21033648 29 17458340831999451445
21065201 7 16081375102996631899
22182313 1 17603586309707504861
2255824 54 18342459188741015066
23557571 272 17022912215856079389
23559900 14 18336546019364601530
23598291 2 17988918938316411221
238 59 18263627511795396574
24771293 8 18129930214675036874
283562 15 17691119757519132202
341906 21 15647048244448621677
458136 41 18411141346321206570
469060 322 17900264414142587835
474 4 18413674621106470952
6034566 193 17972605664652453732
621550 34 18186806863804083185
633830 44 18201732759599283940
7399639 24 18040716965814000645
77492 1 17632571609305595099
81228 2 17256527947186409400
8272917 22 18341622477155129632

> <PUBCHEM_SHAPE_MULTIPOLES>
457.27
10.57
3.25
1.56
6.74
1.82
-0.79
-6.39
-0.53
-5.91
-0.19
3.03
-0.32
-0.67

> <PUBCHEM_SHAPE_SELFOVERLAP>
1006.648

> <PUBCHEM_SHAPE_VOLUME>
247.2

> <PUBCHEM_COORDINATE_TYPE>
2
5
10

$$$$
