11846124
  -OEChem-10062122013D

 44 45  0     0  0  0  0  0  0999 V2000
   -6.1008    0.9818    0.0029 S   0  0  0  0  0  0  0  0  0  0  0  0
   -6.7846    0.7836   -1.2671 O   0  0  0  0  0  0  0  0  0  0  0  0
   -6.8174    0.7613    1.2517 O   0  0  0  0  0  0  0  0  0  0  0  0
    2.8197    2.2500   -0.0035 O   0  0  0  0  0  0  0  0  0  0  0  0
    1.5139   -3.4171   -0.0114 O   0  0  0  0  0  0  0  0  0  0  0  0
    0.0813   -1.6211    0.0105 N   0  0  0  0  0  0  0  0  0  0  0  0
    2.1389    0.0457    0.0039 N   0  0  0  0  0  0  0  0  0  0  0  0
    6.1387   -1.2626    0.0062 N   0  0  0  0  0  0  0  0  0  0  0  0
    6.3764    2.3462   -0.0060 N   0  0  0  0  0  0  0  0  0  0  0  0
   -2.3543   -1.5747   -0.0125 C   0  0  0  0  0  0  0  0  0  0  0  0
   -4.6588   -0.0024   -0.0033 C   0  0  0  0  0  0  0  0  0  0  0  0
   -1.1216   -2.4140   -0.0172 C   0  0  0  0  0  0  0  0  0  0  0  0
   -2.9189   -1.1579   -1.2179 C   0  0  0  0  0  0  0  0  0  0  0  0
   -2.9418   -1.2054    1.1975 C   0  0  0  0  0  0  0  0  0  0  0  0
   -4.0712   -0.3717   -1.2133 C   0  0  0  0  0  0  0  0  0  0  0  0
   -4.0941   -0.4193    1.2021 C   0  0  0  0  0  0  0  0  0  0  0  0
   -5.4944    2.6534    0.0420 C   0  0  0  0  0  0  0  0  0  0  0  0
    1.3527   -2.1955    0.0115 C   0  0  0  0  0  0  0  0  0  0  0  0
    2.4818   -1.2546    0.0081 C   0  0  0  0  0  0  0  0  0  0  0  0
    3.7716   -1.7375    0.0088 C   0  0  0  0  0  0  0  0  0  0  0  0
    4.8020   -0.8041    0.0053 C   0  0  0  0  0  0  0  0  0  0  0  0
    3.1673    0.9234    0.0006 C   0  0  0  0  0  0  0  0  0  0  0  0
    4.5026    0.5537    0.0011 C   0  0  0  0  0  0  0  0  0  0  0  0
    1.4288    2.5463   -0.0037 C   0  0  0  0  0  0  0  0  0  0  0  0
    1.2447    4.0488    0.0065 C   0  0  0  0  0  0  0  0  0  0  0  0
    5.5375    1.5436   -0.0029 C   0  0  0  0  0  0  0  0  0  0  0  0
   -1.1064   -3.0908    0.8460 H   0  0  0  0  0  0  0  0  0  0  0  0
   -1.0892   -3.0553   -0.9066 H   0  0  0  0  0  0  0  0  0  0  0  0
   -2.4683   -1.4360   -2.1670 H   0  0  0  0  0  0  0  0  0  0  0  0
   -2.5092   -1.5210    2.1433 H   0  0  0  0  0  0  0  0  0  0  0  0
   -4.4891   -0.0522   -2.1637 H   0  0  0  0  0  0  0  0  0  0  0  0
   -4.5312   -0.1375    2.1558 H   0  0  0  0  0  0  0  0  0  0  0  0
    0.0017   -0.6075    0.0197 H   0  0  0  0  0  0  0  0  0  0  0  0
   -4.8846    2.8307   -0.8459 H   0  0  0  0  0  0  0  0  0  0  0  0
   -6.3548    3.3260    0.0428 H   0  0  0  0  0  0  0  0  0  0  0  0
   -4.9080    2.7977    0.9513 H   0  0  0  0  0  0  0  0  0  0  0  0
    3.9880   -2.8009    0.0125 H   0  0  0  0  0  0  0  0  0  0  0  0
    0.9540    2.1353   -0.9029 H   0  0  0  0  0  0  0  0  0  0  0  0
    0.9503    2.1248    0.8888 H   0  0  0  0  0  0  0  0  0  0  0  0
    6.3277   -2.2563    0.0097 H   0  0  0  0  0  0  0  0  0  0  0  0
    6.9107   -0.6104    0.0046 H   0  0  0  0  0  0  0  0  0  0  0  0
    0.1834    4.3130    0.0066 H   0  0  0  0  0  0  0  0  0  0  0  0
    1.7185    4.4894    0.8900 H   0  0  0  0  0  0  0  0  0  0  0  0
    1.7214    4.5018   -0.8691 H   0  0  0  0  0  0  0  0  0  0  0  0
  1  2  2  0  0  0  0
  1  3  2  0  0  0  0
  1 11  1  0  0  0  0
  1 17  1  0  0  0  0
  4 22  1  0  0  0  0
  4 24  1  0  0  0  0
  5 18  2  0  0  0  0
  6 12  1  0  0  0  0
  6 18  1  0  0  0  0
  6 33  1  0  0  0  0
  7 19  2  0  0  0  0
  7 22  1  0  0  0  0
  8 21  1  0  0  0  0
  8 40  1  0  0  0  0
  8 41  1  0  0  0  0
  9 26  3  0  0  0  0
 10 12  1  0  0  0  0
 10 13  2  0  0  0  0
 10 14  1  0  0  0  0
 11 15  2  0  0  0  0
 11 16  1  0  0  0  0
 12 27  1  0  0  0  0
 12 28  1  0  0  0  0
 13 15  1  0  0  0  0
 13 29  1  0  0  0  0
 14 16  2  0  0  0  0
 14 30  1  0  0  0  0
 15 31  1  0  0  0  0
 16 32  1  0  0  0  0
 17 34  1  0  0  0  0
 17 35  1  0  0  0  0
 17 36  1  0  0  0  0
 18 19  1  0  0  0  0
 19 20  1  0  0  0  0
 20 21  2  0  0  0  0
 20 37  1  0  0  0  0
 21 23  1  0  0  0  0
 22 23  2  0  0  0  0
 23 26  1  0  0  0  0
 24 25  1  0  0  0  0
 24 38  1  0  0  0  0
 24 39  1  0  0  0  0
 25 42  1  0  0  0  0
 25 43  1  0  0  0  0
 25 44  1  0  0  0  0
M  END
> <PUBCHEM_COMPOUND_CID>
11846124

> <PUBCHEM_CONFORMER_RMSD>
0.8

> <PUBCHEM_CONFORMER_DIVERSEORDER>
1
3
7
65
103
69
109
64
76
93
59
4
72
26
114
62
58
11
9
20
112
107
38
41
90
110
50
37
66
42
40
98
2
61
77
30
108
8
23
47
79
78
100
115
94
67
14
106
48
39
5
87
46
45
19
33
27
86
13
95
17
71
60
92
74
31
101
32
36
24
113
55
80
49
35
22
75
91
96
56
73
18
12
25
51
34
85
57
44
43
28
15
111
88
6
68
10
105
97
21
99
89
84
29
16
81
104
63
70
54
82
83
102
52
53

> <PUBCHEM_MMFF94_PARTIAL_CHARGES>
33
1 1.2
10 -0.14
11 -0.01
12 0.44
13 -0.15
14 -0.15
15 -0.15
16 -0.15
17 0.11
18 0.54
19 0.4
2 -0.65
20 -0.15
21 0.1
22 0.39
23 0.07
24 0.28
26 0.48
29 0.15
3 -0.65
30 0.15
31 0.15
32 0.15
33 0.37
37 0.15
4 -0.36
40 0.4
41 0.4
5 -0.57
6 -0.73
7 -0.62
8 -0.9
9 -0.56

> <PUBCHEM_EFFECTIVE_ROTOR_COUNT>
7

> <PUBCHEM_PHARMACOPHORE_FEATURES>
11
1 2 acceptor
1 3 acceptor
1 4 acceptor
1 5 acceptor
1 6 donor
1 7 acceptor
1 8 cation
1 8 donor
1 9 acceptor
6 10 11 13 14 15 16 rings
6 7 19 20 21 22 23 rings

> <PUBCHEM_HEAVY_ATOM_COUNT>
26

> <PUBCHEM_ATOM_DEF_STEREO_COUNT>
0

> <PUBCHEM_ATOM_UDEF_STEREO_COUNT>
0

> <PUBCHEM_BOND_DEF_STEREO_COUNT>
0

> <PUBCHEM_BOND_UDEF_STEREO_COUNT>
0

> <PUBCHEM_ISOTOPIC_ATOM_COUNT>
0

> <PUBCHEM_COMPONENT_COUNT>
1

> <PUBCHEM_CACTVS_TAUTO_COUNT>
4

> <PUBCHEM_CONFORMER_ID>
00B4C1EC00000001

> <PUBCHEM_MMFF94_ENERGY>
63.3309

> <PUBCHEM_FEATURE_SELFOVERLAP>
55.891

> <PUBCHEM_SHAPE_FINGERPRINT>
10411042 1 17834395623535020150
11273773 38 18263086663949967652
11421498 54 13407059389275127780
12838862 33 18339907295125167736
13402501 40 18261390027350457917
14464042 87 18059860528115515209
14790565 3 17615975847702030540
15064981 113 16773524265541150884
15081414 286 18339934813491829284
15183329 4 18341609304923131281
15238133 3 18115314500753224116
1601671 61 18265331888795800652
16087824 20 18410013204626772852
16760501 71 18409736166609150763
18335252 114 18339350878180351213
20511986 3 17917980689880420794
21033648 29 18261669389303355906
21033650 10 14835861551220519835
21298829 104 18343867701780580065
21421861 104 17895737566495171498
22122407 14 18339652144292586945
2838139 119 18411696552722958319
335352 9 18411138022460092694
338550 245 18335425646954490453
3680242 22 18334285436384812122
474 4 18413671296939420843
5104073 3 18040430018706746338
550186 83 17677310819145276576
57724786 102 17968100884082779884
58902169 19 18130492073295295887

> <PUBCHEM_SHAPE_MULTIPOLES>
495.52
17.18
3.76
0.93
8.72
2.14
0.01
8.05
-0.05
-2.55
-0.01
1.5
-0.12
-0.02

> <PUBCHEM_SHAPE_SELFOVERLAP>
1035.936

> <PUBCHEM_SHAPE_VOLUME>
281.2

> <PUBCHEM_COORDINATE_TYPE>
2
5
10

$$$$
