53246941
  -OEChem-10052115173D

 64 68  0     1  0  0  0  0  0999 V2000
    6.9890   -0.2500   -0.9935 O   0  0  0  0  0  0  0  0  0  0  0  0
   -1.4412   -3.4185    0.8699 O   0  0  0  0  0  0  0  0  0  0  0  0
    3.5269   -0.1457   -0.0791 N   0  0  0  0  0  0  0  0  0  0  0  0
    6.1204    1.2483    0.4899 N   0  0  0  0  0  0  0  0  0  0  0  0
   -3.5053    0.1572   -0.5127 N   0  0  0  0  0  0  0  0  0  0  0  0
   -1.5941   -1.2715   -0.0644 N   0  0  0  0  0  0  0  0  0  0  0  0
   -3.9245   -1.8245    0.4025 N   0  0  0  0  0  0  0  0  0  0  0  0
   -0.6852    4.0639    0.4563 N   0  0  0  0  0  0  0  0  0  0  0  0
    3.1986    1.2788   -0.1335 C   0  0  1  0  0  0  0  0  0  0  0  0
    3.8431    2.1150    0.9885 C   0  0  0  0  0  0  0  0  0  0  0  0
    2.6033   -1.1750    0.0008 C   0  0  0  0  0  0  0  0  0  0  0  0
    4.8070   -0.6589   -0.2114 C   0  0  0  0  0  0  0  0  0  0  0  0
    5.1754    1.6095    1.5281 C   0  0  0  0  0  0  0  0  0  0  0  0
    3.3116   -2.3712   -0.1460 C   0  0  0  0  0  0  0  0  0  0  0  0
    3.4696    1.8632   -1.5265 C   0  0  0  0  0  0  0  0  0  0  0  0
    4.6799   -2.0322   -0.3010 C   0  0  0  0  0  0  0  0  0  0  0  0
    6.0421    0.1016   -0.2892 C   0  0  0  0  0  0  0  0  0  0  0  0
    1.2080   -1.1676    0.1713 C   0  0  0  0  0  0  0  0  0  0  0  0
    2.6122   -3.5951   -0.1207 C   0  0  0  0  0  0  0  0  0  0  0  0
    0.5353   -2.3932    0.1965 C   0  0  0  0  0  0  0  0  0  0  0  0
    1.2257   -3.5915    0.0524 C   0  0  0  0  0  0  0  0  0  0  0  0
   -2.7602    1.2620   -1.0745 C   0  0  0  0  0  0  0  0  0  0  0  0
   -2.0801    2.0978    0.0129 C   0  0  0  0  0  0  0  0  0  0  0  0
   -2.9875   -1.0177   -0.0430 C   0  0  0  0  0  0  0  0  0  0  0  0
   -0.9087   -2.4127    0.3743 C   0  0  0  0  0  0  0  0  0  0  0  0
   -4.8671    0.1052   -0.3602 C   0  0  0  0  0  0  0  0  0  0  0  0
   -1.3332    3.2851   -0.5925 C   0  0  0  0  0  0  0  0  0  0  0  0
   -5.1038   -1.1413    0.2129 C   0  0  0  0  0  0  0  0  0  0  0  0
   -5.8811    1.0138   -0.6649 C   0  0  0  0  0  0  0  0  0  0  0  0
   -6.4246   -1.5205    0.5062 C   0  0  0  0  0  0  0  0  0  0  0  0
   -7.1898    0.6199   -0.3664 C   0  0  0  0  0  0  0  0  0  0  0  0
   -7.4589   -0.6242    0.2087 C   0  0  0  0  0  0  0  0  0  0  0  0
    0.4418    4.8238   -0.0874 C   0  0  0  0  0  0  0  0  0  0  0  0
   -1.6445    4.9661    1.0956 C   0  0  0  0  0  0  0  0  0  0  0  0
    2.1157    1.3650    0.0080 H   0  0  0  0  0  0  0  0  0  0  0  0
    3.9581    3.1526    0.6495 H   0  0  0  0  0  0  0  0  0  0  0  0
    3.1459    2.1586    1.8359 H   0  0  0  0  0  0  0  0  0  0  0  0
    5.0215    0.7352    2.1715 H   0  0  0  0  0  0  0  0  0  0  0  0
    5.6448    2.3844    2.1436 H   0  0  0  0  0  0  0  0  0  0  0  0
    2.9764    1.2656   -2.3013 H   0  0  0  0  0  0  0  0  0  0  0  0
    3.0817    2.8848   -1.5977 H   0  0  0  0  0  0  0  0  0  0  0  0
    4.5363    1.8990   -1.7654 H   0  0  0  0  0  0  0  0  0  0  0  0
    5.4999   -2.7259   -0.4344 H   0  0  0  0  0  0  0  0  0  0  0  0
    6.9680    1.8025    0.4156 H   0  0  0  0  0  0  0  0  0  0  0  0
    0.6982   -0.2242    0.3261 H   0  0  0  0  0  0  0  0  0  0  0  0
    3.1415   -4.5371   -0.2348 H   0  0  0  0  0  0  0  0  0  0  0  0
    0.7046   -4.5458    0.0645 H   0  0  0  0  0  0  0  0  0  0  0  0
   -3.4442    1.8826   -1.6626 H   0  0  0  0  0  0  0  0  0  0  0  0
   -2.0292    0.8539   -1.7816 H   0  0  0  0  0  0  0  0  0  0  0  0
   -1.3824    1.4796    0.5911 H   0  0  0  0  0  0  0  0  0  0  0  0
   -2.8474    2.4388    0.7180 H   0  0  0  0  0  0  0  0  0  0  0  0
   -0.5768    2.8713   -1.2733 H   0  0  0  0  0  0  0  0  0  0  0  0
   -2.0003    3.9021   -1.2083 H   0  0  0  0  0  0  0  0  0  0  0  0
   -1.0568   -0.5323   -0.5040 H   0  0  0  0  0  0  0  0  0  0  0  0
   -5.6805    1.9825   -1.1076 H   0  0  0  0  0  0  0  0  0  0  0  0
   -6.6440   -2.4848    0.9532 H   0  0  0  0  0  0  0  0  0  0  0  0
   -8.0125    1.2961   -0.5857 H   0  0  0  0  0  0  0  0  0  0  0  0
   -8.4864   -0.9020    0.4295 H   0  0  0  0  0  0  0  0  0  0  0  0
    0.1285    5.5238   -0.8705 H   0  0  0  0  0  0  0  0  0  0  0  0
    0.9413    5.3923    0.7051 H   0  0  0  0  0  0  0  0  0  0  0  0
    1.1956    4.1489   -0.5065 H   0  0  0  0  0  0  0  0  0  0  0  0
   -1.1537    5.5400    1.8902 H   0  0  0  0  0  0  0  0  0  0  0  0
   -2.0820    5.6777    0.3857 H   0  0  0  0  0  0  0  0  0  0  0  0
   -2.4577    4.4166    1.5794 H   0  0  0  0  0  0  0  0  0  0  0  0
  1 17  2  0  0  0  0
  2 25  2  0  0  0  0
  3  9  1  0  0  0  0
  3 11  1  0  0  0  0
  3 12  1  0  0  0  0
  4 13  1  0  0  0  0
  4 17  1  0  0  0  0
  4 44  1  0  0  0  0
  5 22  1  0  0  0  0
  5 24  1  0  0  0  0
  5 26  1  0  0  0  0
  6 24  1  0  0  0  0
  6 25  1  0  0  0  0
  6 54  1  0  0  0  0
  7 24  2  0  0  0  0
  7 28  1  0  0  0  0
  8 27  1  0  0  0  0
  8 33  1  0  0  0  0
  8 34  1  0  0  0  0
  9 10  1  0  0  0  0
  9 15  1  0  0  0  0
  9 35  1  0  0  0  0
 10 13  1  0  0  0  0
 10 36  1  0  0  0  0
 10 37  1  0  0  0  0
 11 14  2  0  0  0  0
 11 18  1  0  0  0  0
 12 16  2  0  0  0  0
 12 17  1  0  0  0  0
 13 38  1  0  0  0  0
 13 39  1  0  0  0  0
 14 16  1  0  0  0  0
 14 19  1  0  0  0  0
 15 40  1  0  0  0  0
 15 41  1  0  0  0  0
 15 42  1  0  0  0  0
 16 43  1  0  0  0  0
 18 20  2  0  0  0  0
 18 45  1  0  0  0  0
 19 21  2  0  0  0  0
 19 46  1  0  0  0  0
 20 21  1  0  0  0  0
 20 25  1  0  0  0  0
 21 47  1  0  0  0  0
 22 23  1  0  0  0  0
 22 48  1  0  0  0  0
 22 49  1  0  0  0  0
 23 27  1  0  0  0  0
 23 50  1  0  0  0  0
 23 51  1  0  0  0  0
 26 28  1  0  0  0  0
 26 29  2  0  0  0  0
 27 52  1  0  0  0  0
 27 53  1  0  0  0  0
 28 30  2  0  0  0  0
 29 31  1  0  0  0  0
 29 55  1  0  0  0  0
 30 32  1  0  0  0  0
 30 56  1  0  0  0  0
 31 32  2  0  0  0  0
 31 57  1  0  0  0  0
 32 58  1  0  0  0  0
 33 59  1  0  0  0  0
 33 60  1  0  0  0  0
 33 61  1  0  0  0  0
 34 62  1  0  0  0  0
 34 63  1  0  0  0  0
 34 64  1  0  0  0  0
M  END
> <PUBCHEM_COMPOUND_CID>
53246941

> <PUBCHEM_CONFORMER_RMSD>
1

> <PUBCHEM_CONFORMER_DIVERSEORDER>
1
44
49
5
33
25
54
58
42
55
68
17
39
40
52
70
14
38
36
66
57
27
15
4
53
2
9
23
50
34
46
6
7
8
30
16
48
37
26
22
51
56
71
12
67
29
64
13
21
41
59
11
69
10
24
3
60
62
32
47
61
65
20
19
28
43
45
31
18
35
63

> <PUBCHEM_MMFF94_PARTIAL_CHARGES>
40
1 -0.57
11 -0.15
12 -0.24
13 0.3
16 -0.15
17 0.71
18 -0.15
19 -0.15
2 -0.57
20 0.09
21 -0.15
22 0.26
24 0.25
25 0.54
26 -0.15
27 0.27
28 0.23
29 -0.15
3 0.05
30 -0.15
31 -0.15
32 -0.15
33 0.27
34 0.27
4 -0.73
43 0.15
44 0.37
45 0.15
46 0.15
47 0.15
5 0.05
54 0.37
55 0.15
56 0.15
57 0.15
58 0.15
6 -0.49
7 -0.57
8 -0.81
9 0.26

> <PUBCHEM_EFFECTIVE_ROTOR_COUNT>
7.8

> <PUBCHEM_PHARMACOPHORE_FEATURES>
11
1 1 acceptor
1 2 acceptor
1 3 cation
1 4 donor
1 6 donor
1 8 cation
5 3 11 12 14 16 rings
5 5 7 24 26 28 rings
6 11 14 18 19 20 21 rings
6 26 28 29 30 31 32 rings
7 3 4 9 10 12 13 17 rings

> <PUBCHEM_HEAVY_ATOM_COUNT>
34

> <PUBCHEM_ATOM_DEF_STEREO_COUNT>
1

> <PUBCHEM_ATOM_UDEF_STEREO_COUNT>
0

> <PUBCHEM_BOND_DEF_STEREO_COUNT>
0

> <PUBCHEM_BOND_UDEF_STEREO_COUNT>
0

> <PUBCHEM_ISOTOPIC_ATOM_COUNT>
0

> <PUBCHEM_COMPONENT_COUNT>
1

> <PUBCHEM_CACTVS_TAUTO_COUNT>
6

> <PUBCHEM_CONFORMER_ID>
032C7BDD00000001

> <PUBCHEM_MMFF94_ENERGY>
79.0689

> <PUBCHEM_FEATURE_SELFOVERLAP>
56.068

> <PUBCHEM_SHAPE_FINGERPRINT>
10006869 2 18338222765901575351
10190206 1 18048632402042770156
10290309 65 18114734924881984847
10864689 126 18410853240062833509
11646440 116 18410017666933750081
12925494 130 18192987111564592645
13402501 40 18410008862007966129
13560911 43 18187643583578827808
14117953 113 18408604777006298948
14394314 77 18340774728701902993
15274700 259 17606092054638885829
15276724 80 18196935479426277517
15320467 1 18410574002384568041
15351339 4 18263352608757212313
15419008 145 18264758875691865994
15483637 11 18123188991766373809
15890870 6 18334016120523871758
15961568 22 18410859832510591983
15968369 153 18129924699019357984
18608769 82 18408322206955365102
19611394 137 17970642989558753307
21033648 29 18198330953071297274
221357 26 18343303626608608198
23559900 14 18408881854015326863
24771750 20 17899988419739443333
3004659 81 18040715895966691740
350125 39 18408323276665849070
4073 2 17894919550222606051
4093350 32 17489873721545577342
46194498 28 17987241023527935638
469060 322 18338246985264635489
50150288 127 17128733492875586513
5265222 85 17109048257446069557
5776283 40 18265342879718000604
59755656 215 18409730655949851654
6004065 56 18339634668302962487
653340 110 18339921494471684232

> <PUBCHEM_SHAPE_MULTIPOLES>
658.08
17.17
5.58
0.97
10.73
5.14
-0.01
-1.74
0.76
-0.81
-1.14
-0.53
0.52
1.07

> <PUBCHEM_SHAPE_SELFOVERLAP>
1434.626

> <PUBCHEM_SHAPE_VOLUME>
358.2

> <PUBCHEM_COORDINATE_TYPE>
2
5
10

$$$$
