49830459
  -OEChem-10052120443D

 57 61  0     0  0  0  0  0  0999 V2000
    6.0379    1.1430   -0.1151 O   0  0  0  0  0  0  0  0  0  0  0  0
   -3.1986   -1.3173   -0.5522 N   0  0  0  0  0  0  0  0  0  0  0  0
    4.2588   -2.7090    0.0475 N   0  0  0  0  0  0  0  0  0  0  0  0
   -1.9001   -2.5331   -1.7617 N   0  0  0  0  0  0  0  0  0  0  0  0
   -3.1493   -2.0961   -1.6449 N   0  0  0  0  0  0  0  0  0  0  0  0
    3.7445    0.6654   -0.3619 N   0  0  0  0  0  0  0  0  0  0  0  0
    4.7583   -1.4635   -0.0155 N   0  0  0  0  0  0  0  0  0  0  0  0
   -1.9861   -1.2344    0.0601 C   0  0  0  0  0  0  0  0  0  0  0  0
    0.2244   -2.2674   -0.5177 C   0  0  0  0  0  0  0  0  0  0  0  0
   -1.1749   -2.0144   -0.7253 C   0  0  0  0  0  0  0  0  0  0  0  0
    2.4884   -1.4647   -0.3076 C   0  0  0  0  0  0  0  0  0  0  0  0
    2.9021   -2.7788   -0.1206 C   0  0  0  0  0  0  0  0  0  0  0  0
    1.1248   -1.1948   -0.5106 C   0  0  0  0  0  0  0  0  0  0  0  0
   -4.4419   -0.6927   -0.1709 C   0  0  0  0  0  0  0  0  0  0  0  0
   -1.7311   -0.4691    1.2557 C   0  0  0  0  0  0  0  0  0  0  0  0
    3.6782   -0.7091   -0.2311 C   0  0  0  0  0  0  0  0  0  0  0  0
    0.6670   -3.5778   -0.3274 C   0  0  0  0  0  0  0  0  0  0  0  0
    2.0211   -3.8625   -0.1238 C   0  0  0  0  0  0  0  0  0  0  0  0
   -4.5167    0.7671   -0.5439 C   0  0  0  0  0  0  0  0  0  0  0  0
   -1.3349    0.8649    1.1584 C   0  0  0  0  0  0  0  0  0  0  0  0
   -1.8808   -1.0626    2.5089 C   0  0  0  0  0  0  0  0  0  0  0  0
    4.5051    2.9706   -0.4676 C   0  0  0  0  0  0  0  0  0  0  0  0
    4.8802    1.5030   -0.3006 C   0  0  0  0  0  0  0  0  0  0  0  0
   -4.7529    1.7273    0.4399 C   0  0  0  0  0  0  0  0  0  0  0  0
   -4.3497    1.1566   -1.8728 C   0  0  0  0  0  0  0  0  0  0  0  0
    5.6963    3.9245   -0.4097 C   0  0  0  0  0  0  0  0  0  0  0  0
   -1.0883    1.6052    2.3147 C   0  0  0  0  0  0  0  0  0  0  0  0
   -1.6342   -0.3224    3.6651 C   0  0  0  0  0  0  0  0  0  0  0  0
   -1.2380    1.0116    3.5680 C   0  0  0  0  0  0  0  0  0  0  0  0
   -4.8222    3.0770    0.0949 C   0  0  0  0  0  0  0  0  0  0  0  0
   -4.4190    2.5062   -2.2179 C   0  0  0  0  0  0  0  0  0  0  0  0
   -4.6553    3.4665   -1.2341 C   0  0  0  0  0  0  0  0  0  0  0  0
    5.2868    5.3808   -0.5802 C   0  0  0  0  0  0  0  0  0  0  0  0
    0.7932   -0.1741   -0.6763 H   0  0  0  0  0  0  0  0  0  0  0  0
   -4.5674   -0.8401    0.9080 H   0  0  0  0  0  0  0  0  0  0  0  0
   -5.2640   -1.2332   -0.6564 H   0  0  0  0  0  0  0  0  0  0  0  0
   -0.0402   -4.4054   -0.3329 H   0  0  0  0  0  0  0  0  0  0  0  0
    2.3668   -4.8794    0.0246 H   0  0  0  0  0  0  0  0  0  0  0  0
    4.9019   -3.4741    0.2085 H   0  0  0  0  0  0  0  0  0  0  0  0
    2.8479    1.1193   -0.5208 H   0  0  0  0  0  0  0  0  0  0  0  0
   -1.2148    1.3438    0.1895 H   0  0  0  0  0  0  0  0  0  0  0  0
   -2.1891   -2.1013    2.6016 H   0  0  0  0  0  0  0  0  0  0  0  0
    3.9920    3.0792   -1.4308 H   0  0  0  0  0  0  0  0  0  0  0  0
    3.7883    3.2266    0.3221 H   0  0  0  0  0  0  0  0  0  0  0  0
   -4.8843    1.4384    1.4793 H   0  0  0  0  0  0  0  0  0  0  0  0
   -4.1738    0.4228   -2.6543 H   0  0  0  0  0  0  0  0  0  0  0  0
    6.4184    3.6607   -1.1918 H   0  0  0  0  0  0  0  0  0  0  0  0
    6.2161    3.8079    0.5489 H   0  0  0  0  0  0  0  0  0  0  0  0
   -0.7805    2.6440    2.2389 H   0  0  0  0  0  0  0  0  0  0  0  0
   -1.7509   -0.7844    4.6410 H   0  0  0  0  0  0  0  0  0  0  0  0
   -1.0462    1.5880    4.4682 H   0  0  0  0  0  0  0  0  0  0  0  0
   -5.0055    3.8247    0.8610 H   0  0  0  0  0  0  0  0  0  0  0  0
   -4.2908    2.8095   -3.2529 H   0  0  0  0  0  0  0  0  0  0  0  0
   -4.7093    4.5174   -1.5028 H   0  0  0  0  0  0  0  0  0  0  0  0
    4.5938    5.6866    0.2100 H   0  0  0  0  0  0  0  0  0  0  0  0
    6.1663    6.0304   -0.5327 H   0  0  0  0  0  0  0  0  0  0  0  0
    4.7980    5.5385   -1.5468 H   0  0  0  0  0  0  0  0  0  0  0  0
  1 23  2  0  0  0  0
  2  5  1  0  0  0  0
  2  8  1  0  0  0  0
  2 14  1  0  0  0  0
  3  7  1  0  0  0  0
  3 12  1  0  0  0  0
  3 39  1  0  0  0  0
  4  5  2  0  0  0  0
  4 10  1  0  0  0  0
  6 16  1  0  0  0  0
  6 23  1  0  0  0  0
  6 40  1  0  0  0  0
  7 16  2  0  0  0  0
  8 10  2  0  0  0  0
  8 15  1  0  0  0  0
  9 10  1  0  0  0  0
  9 13  2  0  0  0  0
  9 17  1  0  0  0  0
 11 12  2  0  0  0  0
 11 13  1  0  0  0  0
 11 16  1  0  0  0  0
 12 18  1  0  0  0  0
 13 34  1  0  0  0  0
 14 19  1  0  0  0  0
 14 35  1  0  0  0  0
 14 36  1  0  0  0  0
 15 20  2  0  0  0  0
 15 21  1  0  0  0  0
 17 18  2  0  0  0  0
 17 37  1  0  0  0  0
 18 38  1  0  0  0  0
 19 24  2  0  0  0  0
 19 25  1  0  0  0  0
 20 27  1  0  0  0  0
 20 41  1  0  0  0  0
 21 28  2  0  0  0  0
 21 42  1  0  0  0  0
 22 23  1  0  0  0  0
 22 26  1  0  0  0  0
 22 43  1  0  0  0  0
 22 44  1  0  0  0  0
 24 30  1  0  0  0  0
 24 45  1  0  0  0  0
 25 31  2  0  0  0  0
 25 46  1  0  0  0  0
 26 33  1  0  0  0  0
 26 47  1  0  0  0  0
 26 48  1  0  0  0  0
 27 29  2  0  0  0  0
 27 49  1  0  0  0  0
 28 29  1  0  0  0  0
 28 50  1  0  0  0  0
 29 51  1  0  0  0  0
 30 32  2  0  0  0  0
 30 52  1  0  0  0  0
 31 32  1  0  0  0  0
 31 53  1  0  0  0  0
 32 54  1  0  0  0  0
 33 55  1  0  0  0  0
 33 56  1  0  0  0  0
 33 57  1  0  0  0  0
M  END
> <PUBCHEM_COMPOUND_CID>
49830459

> <PUBCHEM_CONFORMER_RMSD>
1

> <PUBCHEM_CONFORMER_DIVERSEORDER>
1
106
55
61
132
67
128
29
81
126
94
95
41
90
39
38
52
110
64
33
99
113
56
40
87
88
54
68
118
74
19
102
130
109
125
122
100
112
12
31
14
79
77
65
92
35
47
121
51
93
10
96
133
107
98
9
116
115
53
42
83
124
69
13
123
28
75
50
23
86
101
91
34
80
57
89
59
43
17
76
72
30
66
15
16
26
60
97
119
44
48
108
82
131
117
36
3
63
127
27
37
103
49
111
21
73
129
7
45
105
120
32
70
58
20
114
62
22
78
46
85
18
84
8
134
5
25
71
104
2
135
24
11
6
4

> <PUBCHEM_MMFF94_PARTIAL_CHARGES>
45
1 -0.57
10 0.17
12 -0.15
13 -0.15
14 0.4
15 0.05
16 0.35
17 -0.15
18 -0.15
19 -0.14
2 0.31
20 -0.15
21 -0.15
22 0.06
23 0.57
24 -0.15
25 -0.15
27 -0.15
28 -0.15
29 -0.15
3 0.3
30 -0.15
31 -0.15
32 -0.15
34 0.15
37 0.15
38 0.15
39 0.27
4 -0.23
40 0.37
41 0.15
42 0.15
45 0.15
46 0.15
49 0.15
5 -0.42
50 0.15
51 0.15
52 0.15
53 0.15
54 0.15
6 -0.49
7 -0.71
8 -0.2
9 0.05

> <PUBCHEM_EFFECTIVE_ROTOR_COUNT>
8

> <PUBCHEM_PHARMACOPHORE_FEATURES>
9
1 1 acceptor
1 3 donor
1 33 hydrophobe
1 6 donor
5 2 4 5 8 10 rings
5 3 7 11 12 16 rings
6 15 20 21 27 28 29 rings
6 19 24 25 30 31 32 rings
6 9 11 12 13 17 18 rings

> <PUBCHEM_HEAVY_ATOM_COUNT>
33

> <PUBCHEM_ATOM_DEF_STEREO_COUNT>
0

> <PUBCHEM_ATOM_UDEF_STEREO_COUNT>
0

> <PUBCHEM_BOND_DEF_STEREO_COUNT>
0

> <PUBCHEM_BOND_UDEF_STEREO_COUNT>
0

> <PUBCHEM_ISOTOPIC_ATOM_COUNT>
0

> <PUBCHEM_COMPONENT_COUNT>
1

> <PUBCHEM_CACTVS_TAUTO_COUNT>
24

> <PUBCHEM_CONFORMER_ID>
02F85A3B00000001

> <PUBCHEM_MMFF94_ENERGY>
73.5653

> <PUBCHEM_FEATURE_SELFOVERLAP>
45.764

> <PUBCHEM_SHAPE_FINGERPRINT>
10673678 19 18270120098515083085
11479125 193 18410859832901813793
11505856 67 15840726062219001137
12633257 1 15357701919961264766
12788726 201 16771822135947729027
13583140 156 18045241369772979698
13627167 48 18126030349662877748
13911987 19 17704073993391018519
14114206 34 17131569300735152232
14289585 56 15103837462904711797
14468879 13 18187085065646449457
14713325 29 18262520420188523067
14739800 52 16881309279212536325
14790565 3 18410009979179446470
14932702 115 17846489327351590265
15274700 147 16456878463275256620
16067690 210 17677033754994554980
20715895 44 17837766725968184989
21033648 29 16878801374355880509
21049683 271 17912077567409192471
22122407 14 18333733529034810600
22907989 373 17489312940809005907
23559900 14 17844236337690240198
27425 322 18041840585341427969
2838139 119 18118677721843578853
3552219 110 17771081667967267155
376196 1 18408041823359647290
4173938 77 18196674924744921700
469060 322 17685234041468185931
6034566 193 18129963237903167809
6523845 18 17904807497662487750
6609424 69 15173388213201811936

> <PUBCHEM_SHAPE_MULTIPOLES>
643.37
13.04
5.8
2.45
10.17
4.34
2.96
15.43
-5.06
7.28
-2.36
-3.56
0.48
0.28

> <PUBCHEM_SHAPE_SELFOVERLAP>
1419.135

> <PUBCHEM_SHAPE_VOLUME>
348.3

> <PUBCHEM_COORDINATE_TYPE>
2
5
10

$$$$
