135451585
  -OEChem-10062121533D

 20 22  0     0  0  0  0  0  0999 V2000
   -4.6111   -1.1815   -0.0001 Cl  0  0  0  0  0  0  0  0  0  0  0  0
    0.5414    1.5545    0.0005 O   0  0  0  0  0  0  0  0  0  0  0  0
    3.4433    1.6292    0.0002 O   0  0  0  0  0  0  0  0  0  0  0  0
    1.2865   -1.9473    0.0005 N   0  0  0  0  0  0  0  0  0  0  0  0
    3.3556   -0.6947   -0.0014 N   0  0  0  0  0  0  0  0  0  0  0  0
   -0.6951   -0.3632    0.0008 C   0  0  0  0  0  0  0  0  0  0  0  0
    0.6741   -0.6865    0.0009 C   0  0  0  0  0  0  0  0  0  0  0  0
   -0.7282    1.0355    0.0004 C   0  0  0  0  0  0  0  0  0  0  0  0
    1.3759    0.4887    0.0007 C   0  0  0  0  0  0  0  0  0  0  0  0
   -1.9114   -1.0663    0.0003 C   0  0  0  0  0  0  0  0  0  0  0  0
   -1.9053    1.7823   -0.0007 C   0  0  0  0  0  0  0  0  0  0  0  0
    2.7991    0.5868   -0.0001 C   0  0  0  0  0  0  0  0  0  0  0  0
   -3.1083   -0.3370   -0.0003 C   0  0  0  0  0  0  0  0  0  0  0  0
   -3.1027    1.0605   -0.0010 C   0  0  0  0  0  0  0  0  0  0  0  0
    2.5861   -1.8612   -0.0009 C   0  0  0  0  0  0  0  0  0  0  0  0
   -1.9173   -2.1526    0.0006 H   0  0  0  0  0  0  0  0  0  0  0  0
   -1.8952    2.8658   -0.0011 H   0  0  0  0  0  0  0  0  0  0  0  0
   -4.0407    1.6122   -0.0016 H   0  0  0  0  0  0  0  0  0  0  0  0
    4.3680   -0.7793   -0.0025 H   0  0  0  0  0  0  0  0  0  0  0  0
    3.2081   -2.7701   -0.0017 H   0  0  0  0  0  0  0  0  0  0  0  0
  1 13  1  0  0  0  0
  2  8  1  0  0  0  0
  2  9  1  0  0  0  0
  3 12  2  0  0  0  0
  4  7  1  0  0  0  0
  4 15  2  0  0  0  0
  5 12  1  0  0  0  0
  5 15  1  0  0  0  0
  5 19  1  0  0  0  0
  6  7  1  0  0  0  0
  6  8  2  0  0  0  0
  6 10  1  0  0  0  0
  7  9  2  0  0  0  0
  8 11  1  0  0  0  0
  9 12  1  0  0  0  0
 10 13  2  0  0  0  0
 10 16  1  0  0  0  0
 11 14  2  0  0  0  0
 11 17  1  0  0  0  0
 13 14  1  0  0  0  0
 14 18  1  0  0  0  0
 15 20  1  0  0  0  0
M  END
> <PUBCHEM_COMPOUND_CID>
135451585

> <PUBCHEM_CONFORMER_RMSD>
0.4

> <PUBCHEM_CONFORMER_DIVERSEORDER>
1

> <PUBCHEM_MMFF94_PARTIAL_CHARGES>
19
1 -0.18
10 -0.15
11 -0.15
12 0.71
13 0.18
14 -0.15
15 0.45
16 0.15
17 0.15
18 0.15
19 0.37
2 -0.28
20 0.06
3 -0.57
4 -0.57
5 -0.49
7 0.12
8 0.14
9 0.05

> <PUBCHEM_EFFECTIVE_ROTOR_COUNT>
0

> <PUBCHEM_PHARMACOPHORE_FEATURES>
6
1 2 acceptor
1 3 acceptor
1 5 donor
5 2 6 7 8 9 rings
6 4 5 7 9 12 15 rings
6 6 8 10 11 13 14 rings

> <PUBCHEM_HEAVY_ATOM_COUNT>
15

> <PUBCHEM_ATOM_DEF_STEREO_COUNT>
0

> <PUBCHEM_ATOM_UDEF_STEREO_COUNT>
0

> <PUBCHEM_BOND_DEF_STEREO_COUNT>
0

> <PUBCHEM_BOND_UDEF_STEREO_COUNT>
0

> <PUBCHEM_ISOTOPIC_ATOM_COUNT>
0

> <PUBCHEM_COMPONENT_COUNT>
1

> <PUBCHEM_CACTVS_TAUTO_COUNT>
-1

> <PUBCHEM_CONFORMER_ID>
0812D3C100000001

> <PUBCHEM_MMFF94_ENERGY>
32.3641

> <PUBCHEM_FEATURE_SELFOVERLAP>
30.681

> <PUBCHEM_SHAPE_FINGERPRINT>
10608611 8 18337387149743658613
10967382 1 18338799034321338372
10980938 120 18412263943313847994
11132069 177 18410566280069988000
11471102 20 18410006667527545791
11769659 78 18337105670640532339
11806522 49 18337389452315400319
12032990 46 18411985728090792415
12932764 1 17459469944467744249
13140716 1 18267863869862018024
13296908 3 18410856521212060655
13380535 76 18335138738759247402
14144814 61 18411138013342104459
14325111 11 18410573967992908321
14576447 43 17984688168403350807
15196674 1 18410575067509589989
15219456 202 18410008810489496501
15375462 189 18130786793587149643
15375462 6 18410293618355489253
15442244 35 18123189004692765666
15536298 74 18342739598512712030
16945 1 18338516451274772325
18186145 218 17822009761763273215
19422 9 18342461408990797547
19591789 44 16100249714830984053
200 152 18202273728600823591
20201158 50 18335139817012264507
20510252 161 18343585131502540081
20645477 70 18412539886710655655
21267235 1 18411146822146442343
21501502 16 18339082588146739833
21501925 9 18337380570027626754
221490 88 18409456851526541514
2334 1 18410855434368907524
23402539 116 18339069489008281127
23402655 69 18412537705025128573
23463225 33 18337671923450035110
23552423 10 18261957344963599234
23559900 14 18196082253643893482
25610 137 18411139160182943777
2748010 2 18338515235772608524
2871803 45 18335134298069063823
335352 9 17978228257741506975
5104073 3 18410573963935162937
53812653 166 18200307844243386744
57096353 35 18411138077687564533
7364860 26 18342738473405412286
8809292 202 18187933910246011923
9709674 26 18410297990685502615

> <PUBCHEM_SHAPE_MULTIPOLES>
288.86
6.69
2
0.6
2.38
0.03
0
1.22
0
-0.4
0
0.07
0.01
0

> <PUBCHEM_SHAPE_SELFOVERLAP>
646.479

> <PUBCHEM_SHAPE_VOLUME>
154.1

> <PUBCHEM_COORDINATE_TYPE>
2
5
10

$$$$
