36559462
  -OEChem-10052115193D

 32 34  0     0  0  0  0  0  0999 V2000
   -2.6534    0.9807   -2.1762 Cl  0  0  0  0  0  0  0  0  0  0  0  0
   -0.7585   -0.9081    0.6248 O   0  0  0  0  0  0  0  0  0  0  0  0
    0.2800    1.1987    0.4958 N   0  0  0  0  0  0  0  0  0  0  0  0
    4.0625   -1.8853   -0.1320 N   0  0  0  0  0  0  0  0  0  0  0  0
    5.3812   -1.7243   -0.3325 N   0  0  0  0  0  0  0  0  0  0  0  0
    3.3667   -0.7131   -0.0075 C   0  0  0  0  0  0  0  0  0  0  0  0
    1.6243    0.8859    0.2842 C   0  0  0  0  0  0  0  0  0  0  0  0
    4.3174    0.2928   -0.1390 C   0  0  0  0  0  0  0  0  0  0  0  0
   -2.1011    1.0798    0.8612 C   0  0  0  0  0  0  0  0  0  0  0  0
    2.0104   -0.4562    0.2050 C   0  0  0  0  0  0  0  0  0  0  0  0
   -3.3189    0.3315    0.3857 C   0  0  0  0  0  0  0  0  0  0  0  0
    2.5583    1.9156    0.1557 C   0  0  0  0  0  0  0  0  0  0  0  0
    3.9140    1.6360   -0.0572 C   0  0  0  0  0  0  0  0  0  0  0  0
   -0.8023    0.3177    0.6503 C   0  0  0  0  0  0  0  0  0  0  0  0
    5.5324   -0.3979   -0.3362 C   0  0  0  0  0  0  0  0  0  0  0  0
   -3.6391    0.2395   -0.9687 C   0  0  0  0  0  0  0  0  0  0  0  0
   -4.1350   -0.2784    1.3384 C   0  0  0  0  0  0  0  0  0  0  0  0
   -4.7756   -0.4624   -1.3705 C   0  0  0  0  0  0  0  0  0  0  0  0
   -5.2716   -0.9802    0.9366 C   0  0  0  0  0  0  0  0  0  0  0  0
   -5.5918   -1.0723   -0.4179 C   0  0  0  0  0  0  0  0  0  0  0  0
   -2.0645    2.0637    0.3784 H   0  0  0  0  0  0  0  0  0  0  0  0
   -2.1753    1.2863    1.9370 H   0  0  0  0  0  0  0  0  0  0  0  0
    1.3476   -1.3020    0.2944 H   0  0  0  0  0  0  0  0  0  0  0  0
    2.2447    2.9555    0.2193 H   0  0  0  0  0  0  0  0  0  0  0  0
    0.0740    2.1941    0.5484 H   0  0  0  0  0  0  0  0  0  0  0  0
    4.6313    2.4451   -0.1557 H   0  0  0  0  0  0  0  0  0  0  0  0
    3.6973   -2.8286   -0.0898 H   0  0  0  0  0  0  0  0  0  0  0  0
    6.5217    0.0120   -0.4824 H   0  0  0  0  0  0  0  0  0  0  0  0
   -3.8991   -0.2189    2.3977 H   0  0  0  0  0  0  0  0  0  0  0  0
   -5.0390   -0.5436   -2.4220 H   0  0  0  0  0  0  0  0  0  0  0  0
   -5.9068   -1.4557    1.6782 H   0  0  0  0  0  0  0  0  0  0  0  0
   -6.4767   -1.6191   -0.7306 H   0  0  0  0  0  0  0  0  0  0  0  0
  1 16  1  0  0  0  0
  2 14  2  0  0  0  0
  3  7  1  0  0  0  0
  3 14  1  0  0  0  0
  3 25  1  0  0  0  0
  4  5  1  0  0  0  0
  4  6  1  0  0  0  0
  4 27  1  0  0  0  0
  5 15  2  0  0  0  0
  6  8  2  0  0  0  0
  6 10  1  0  0  0  0
  7 10  2  0  0  0  0
  7 12  1  0  0  0  0
  8 13  1  0  0  0  0
  8 15  1  0  0  0  0
  9 11  1  0  0  0  0
  9 14  1  0  0  0  0
  9 21  1  0  0  0  0
  9 22  1  0  0  0  0
 10 23  1  0  0  0  0
 11 16  1  0  0  0  0
 11 17  2  0  0  0  0
 12 13  2  0  0  0  0
 12 24  1  0  0  0  0
 13 26  1  0  0  0  0
 15 28  1  0  0  0  0
 16 18  2  0  0  0  0
 17 19  1  0  0  0  0
 17 29  1  0  0  0  0
 18 20  1  0  0  0  0
 18 30  1  0  0  0  0
 19 20  2  0  0  0  0
 19 31  1  0  0  0  0
 20 32  1  0  0  0  0
M  END
> <PUBCHEM_COMPOUND_CID>
36559462

> <PUBCHEM_CONFORMER_RMSD>
0.6

> <PUBCHEM_CONFORMER_DIVERSEORDER>
1
78
76
44
94
66
26
77
25
93
41
6
51
59
97
23
39
42
58
74
91
65
75
11
83
18
92
14
35
37
9
95
70
27
46
17
72
40
8
30
15
5
87
53
62
57
34
81
19
31
90
89
63
86
49
2
73
55
47
80
32
3
82
45
64
85
52
98
71
28
33
68
43
54
88
4
69
67
10
56
50
16
24
60
96
48
38
61
12
29
7
36
79
84
22
21
20
13

> <PUBCHEM_MMFF94_PARTIAL_CHARGES>
29
1 -0.18
10 -0.15
11 -0.14
12 -0.15
13 -0.15
14 0.57
15 0.14
16 0.18
17 -0.15
18 -0.15
19 -0.15
2 -0.57
20 -0.15
23 0.15
24 0.15
25 0.37
26 0.15
27 0.27
28 0.15
29 0.15
3 -0.55
30 0.15
31 0.15
32 0.15
4 0.3
5 -0.71
6 -0.15
7 0.12
9 0.2

> <PUBCHEM_EFFECTIVE_ROTOR_COUNT>
4

> <PUBCHEM_PHARMACOPHORE_FEATURES>
7
1 2 acceptor
1 3 donor
1 4 donor
1 5 acceptor
5 4 5 6 8 15 rings
6 11 16 17 18 19 20 rings
6 6 7 8 10 12 13 rings

> <PUBCHEM_HEAVY_ATOM_COUNT>
20

> <PUBCHEM_ATOM_DEF_STEREO_COUNT>
0

> <PUBCHEM_ATOM_UDEF_STEREO_COUNT>
0

> <PUBCHEM_BOND_DEF_STEREO_COUNT>
0

> <PUBCHEM_BOND_UDEF_STEREO_COUNT>
0

> <PUBCHEM_ISOTOPIC_ATOM_COUNT>
0

> <PUBCHEM_COMPONENT_COUNT>
1

> <PUBCHEM_CACTVS_TAUTO_COUNT>
5

> <PUBCHEM_CONFORMER_ID>
022DDA6600000001

> <PUBCHEM_MMFF94_ENERGY>
48.4235

> <PUBCHEM_FEATURE_SELFOVERLAP>
35.613

> <PUBCHEM_SHAPE_FINGERPRINT>
10366900 7 16298386872559612481
10498660 4 16226035678873227781
10670039 82 15357972314006566118
10912923 1 17346324833676897329
11089746 13 13406796644661311630
12236239 1 17632300085520267449
12390115 104 17241594028456331565
12403259 415 18040432200549716229
12596602 18 16271926021457000986
12616971 3 17704072910399662285
12633257 1 15267337453036435221
13167823 11 18060984263147603241
13533116 47 18202003252708531312
13668630 136 18343023289344881774
13760787 5 18272934946655013041
13862211 1 18339924823324364226
14350574 20 18335704952940281761
14528608 73 12757154605620060698
14573314 32 17385439903768279735
14863182 85 16702311131198866174
15188451 53 14979661231262016437
15788980 27 18131632270467848881
15961568 22 16443913911128380164
17349148 13 18059860553879868450
17844677 252 18411423912214874837
17857418 61 17989766704752087743
17870717 6 17385443224548087395
1813 80 18060430126673457989
18186145 218 18040152907221213441
19377110 9 17346593106161536632
19489759 90 16081085978630367177
19784866 170 11095882674624104960
200 152 18273496766799868617
20028762 73 18060419093166485366
20645477 70 18410298004129073618
21033648 29 18114168757364802885
21150785 3 16950290640993542062
21267235 1 18271255954061120002
22061861 79 18260828198151255743
221357 26 18261105270871144037
22393880 68 17968086491499566947
22646028 1 17989487420008303104
2297311 6 17095246930227358739
23402539 116 18131071506737281385
23503953 91 14117512177389154217
235170 7 17822286860131399295
23522609 53 17843717501367041960
23557571 272 17385727980668750805
23559900 14 18188209908922902048
23596394 208 17894906300368900938
29717793 49 18273497857668885628
314194 84 18201721760161710570
3268164 11 16443335490797066607
3411729 13 15338257113048661304
341906 21 15285628898105365029
34797466 226 17023194863221581839
351380 3 17775286058137980534
46194498 28 17822012055566168228
465052 167 18130794460172403502
5104073 3 18202284658849740848
5281201 14 18113337513805236740
559249 180 17775284929205003773
573450 72 16917352528358179201
59755656 215 17676203563812265635

> <PUBCHEM_SHAPE_MULTIPOLES>
392.65
14.22
1.62
1.28
1
0.02
-0.46
-5.45
-1.95
1.66
-0.06
-1.97
0.23
0.79

> <PUBCHEM_SHAPE_SELFOVERLAP>
853.282

> <PUBCHEM_SHAPE_VOLUME>
214.2

> <PUBCHEM_COORDINATE_TYPE>
2
5
10

$$$$
