21907509
  -OEChem-10052115193D

 17 18  0     0  0  0  0  0  0999 V2000
   -2.9292    1.6938   -0.0013 Br  0  0  0  0  0  0  0  0  0  0  0  0
    3.0028   -0.5681   -0.0011 O   0  0  0  0  0  0  0  0  0  0  0  0
    1.8118    1.4614    0.0007 N   0  0  0  0  0  0  0  0  0  0  0  0
   -0.2925    0.5642    0.0001 C   0  0  0  0  0  0  0  0  0  0  0  0
    0.4205    1.8719    0.0006 C   0  0  0  0  0  0  0  0  0  0  0  0
    0.6237   -0.4887   -0.0002 C   0  0  0  0  0  0  0  0  0  0  0  0
    1.9741    0.0816    0.0002 C   0  0  0  0  0  0  0  0  0  0  0  0
   -1.6502    0.3067    0.0004 C   0  0  0  0  0  0  0  0  0  0  0  0
    0.2387   -1.8149   -0.0002 C   0  0  0  0  0  0  0  0  0  0  0  0
   -2.0680   -1.0285    0.0006 C   0  0  0  0  0  0  0  0  0  0  0  0
   -1.1318   -2.0795    0.0003 C   0  0  0  0  0  0  0  0  0  0  0  0
    0.2307    2.4564   -0.9033 H   0  0  0  0  0  0  0  0  0  0  0  0
    0.2304    2.4559    0.9046 H   0  0  0  0  0  0  0  0  0  0  0  0
    2.5887    2.1148    0.0005 H   0  0  0  0  0  0  0  0  0  0  0  0
    0.9617   -2.6220   -0.0002 H   0  0  0  0  0  0  0  0  0  0  0  0
   -3.1271   -1.2771    0.0007 H   0  0  0  0  0  0  0  0  0  0  0  0
   -1.4822   -3.1083    0.0003 H   0  0  0  0  0  0  0  0  0  0  0  0
  1  8  1  0  0  0  0
  2  7  2  0  0  0  0
  3  5  1  0  0  0  0
  3  7  1  0  0  0  0
  3 14  1  0  0  0  0
  4  5  1  0  0  0  0
  4  6  2  0  0  0  0
  4  8  1  0  0  0  0
  5 12  1  0  0  0  0
  5 13  1  0  0  0  0
  6  7  1  0  0  0  0
  6  9  1  0  0  0  0
  8 10  2  0  0  0  0
  9 11  2  0  0  0  0
  9 15  1  0  0  0  0
 10 11  1  0  0  0  0
 10 16  1  0  0  0  0
 11 17  1  0  0  0  0
M  END
> <PUBCHEM_COMPOUND_CID>
21907509

> <PUBCHEM_CONFORMER_RMSD>
0.4

> <PUBCHEM_CONFORMER_DIVERSEORDER>
1

> <PUBCHEM_MMFF94_PARTIAL_CHARGES>
15
1 -0.11
10 -0.15
11 -0.15
14 0.37
15 0.15
16 0.15
17 0.15
2 -0.57
3 -0.73
4 -0.14
5 0.44
6 0.09
7 0.54
8 0.11
9 -0.15

> <PUBCHEM_EFFECTIVE_ROTOR_COUNT>
0.4

> <PUBCHEM_PHARMACOPHORE_FEATURES>
5
1 1 hydrophobe
1 2 acceptor
1 3 donor
5 3 4 5 6 7 rings
6 4 6 8 9 10 11 rings

> <PUBCHEM_HEAVY_ATOM_COUNT>
11

> <PUBCHEM_ATOM_DEF_STEREO_COUNT>
0

> <PUBCHEM_ATOM_UDEF_STEREO_COUNT>
0

> <PUBCHEM_BOND_DEF_STEREO_COUNT>
0

> <PUBCHEM_BOND_UDEF_STEREO_COUNT>
0

> <PUBCHEM_ISOTOPIC_ATOM_COUNT>
0

> <PUBCHEM_COMPONENT_COUNT>
1

> <PUBCHEM_CACTVS_TAUTO_COUNT>
2

> <PUBCHEM_CONFORMER_ID>
014E483500000001

> <PUBCHEM_MMFF94_ENERGY>
26.8776

> <PUBCHEM_FEATURE_SELFOVERLAP>
25.46

> <PUBCHEM_SHAPE_FINGERPRINT>
11206711 2 18410011078459030607
12423570 1 17677341480594191909
13380535 76 18338232648858459815
16945 1 18050567648905105056
18185500 45 17258780845820917919
193761 8 18194402422898368485
19973954 147 18265897049755344797
20645476 183 17823442455685057374
21040471 1 18410573993810061441
21501502 16 18338517572277197324
23235685 24 18339355245618992689
2334 1 18338517563655731077
23402655 69 18052240818747789309
23552423 10 17972879434525951838
23559900 14 18343026546063878174
241688 4 16321466360402911443
2748010 2 18411138073276643173
369184 2 15123519124351875758
5084963 1 18130227167664115347
528886 8 18339074874406549329
53812653 166 18341327778047993705
63268167 104 18125158226071532225

> <PUBCHEM_SHAPE_MULTIPOLES>
221.47
3.65
2.31
0.61
0.22
0.41
0
-1.22
0
0.58
0
0.08
-0.01
0

> <PUBCHEM_SHAPE_SELFOVERLAP>
470.458

> <PUBCHEM_SHAPE_VOLUME>
128.3

> <PUBCHEM_COORDINATE_TYPE>
2
5
10

$$$$
