5288018
  -OEChem-10062121583D

 54 58  0     0  0  0  0  0  0999 V2000
    3.6251    2.4393    0.7386 S   0  0  0  0  0  0  0  0  0  0  0  0
    0.8964    0.8282    0.0067 O   0  0  0  0  0  0  0  0  0  0  0  0
   -3.7089   -1.9585    0.0070 O   0  0  0  0  0  0  0  0  0  0  0  0
   -7.4378    2.0274   -0.0879 N   0  0  0  0  0  0  0  0  0  0  0  0
   -5.0071    0.4697   -0.0577 N   0  0  0  0  0  0  0  0  0  0  0  0
   -3.6304    0.3529   -0.0385 N   0  0  0  0  0  0  0  0  0  0  0  0
   -1.6604   -0.8129    0.0088 N   0  0  0  0  0  0  0  0  0  0  0  0
    4.8130   -1.3060    0.1000 N   0  0  0  0  0  0  0  0  0  0  0  0
    4.1381   -2.4902    0.1161 N   0  0  0  0  0  0  0  0  0  0  0  0
    5.9052    2.9744   -0.3558 N   0  0  0  0  0  0  0  0  0  0  0  0
   -6.9662    1.3278   -1.2896 C   0  0  0  0  0  0  0  0  0  0  0  0
   -7.0004    1.3210    1.1228 C   0  0  0  0  0  0  0  0  0  0  0  0
   -5.4415    1.1736   -1.2682 C   0  0  0  0  0  0  0  0  0  0  0  0
   -5.4757    1.1672    1.1437 C   0  0  0  0  0  0  0  0  0  0  0  0
    0.6334   -1.6103    0.0539 C   0  0  0  0  0  0  0  0  0  0  0  0
    2.7439   -0.6841    0.0615 C   0  0  0  0  0  0  0  0  0  0  0  0
    1.5771   -2.6743    0.0877 C   0  0  0  0  0  0  0  0  0  0  0  0
   -8.8922    2.1709   -0.1081 C   0  0  0  0  0  0  0  0  0  0  0  0
    2.8786   -2.0794    0.0919 C   0  0  0  0  0  0  0  0  0  0  0  0
    1.3610   -0.2928    0.0359 C   0  0  0  0  0  0  0  0  0  0  0  0
   -0.7100   -1.8595    0.0419 C   0  0  0  0  0  0  0  0  0  0  0  0
    4.0084   -0.1848    0.0670 C   0  0  0  0  0  0  0  0  0  0  0  0
   -3.0546   -0.9180   -0.0060 C   0  0  0  0  0  0  0  0  0  0  0  0
    1.1792   -3.9912    0.1094 C   0  0  0  0  0  0  0  0  0  0  0  0
   -1.1356   -3.1798    0.0633 C   0  0  0  0  0  0  0  0  0  0  0  0
    4.5044    1.1361    0.0453 C   0  0  0  0  0  0  0  0  0  0  0  0
   -0.1982   -4.2371    0.0967 C   0  0  0  0  0  0  0  0  0  0  0  0
    5.6874    1.6166   -0.4860 C   0  0  0  0  0  0  0  0  0  0  0  0
    4.8833    3.5100    0.2741 C   0  0  0  0  0  0  0  0  0  0  0  0
    6.7251    0.8161   -1.1714 C   0  0  0  0  0  0  0  0  0  0  0  0
    4.7592    4.9478    0.5969 C   0  0  0  0  0  0  0  0  0  0  0  0
   -7.2423    1.8996   -2.1838 H   0  0  0  0  0  0  0  0  0  0  0  0
   -7.4358    0.3384   -1.3764 H   0  0  0  0  0  0  0  0  0  0  0  0
   -7.4720    0.3311    1.1908 H   0  0  0  0  0  0  0  0  0  0  0  0
   -7.3018    1.8878    2.0121 H   0  0  0  0  0  0  0  0  0  0  0  0
   -5.1368    0.6061   -2.1564 H   0  0  0  0  0  0  0  0  0  0  0  0
   -4.9695    2.1636   -1.3385 H   0  0  0  0  0  0  0  0  0  0  0  0
   -5.0059    2.1568    1.2325 H   0  0  0  0  0  0  0  0  0  0  0  0
   -5.1962    0.5951    2.0373 H   0  0  0  0  0  0  0  0  0  0  0  0
   -9.2351    2.7333    0.7675 H   0  0  0  0  0  0  0  0  0  0  0  0
   -9.2102    2.7381   -0.9899 H   0  0  0  0  0  0  0  0  0  0  0  0
   -9.4048    1.2022   -0.1180 H   0  0  0  0  0  0  0  0  0  0  0  0
   -3.0654    1.1964   -0.0465 H   0  0  0  0  0  0  0  0  0  0  0  0
   -1.2780    0.1290   -0.0055 H   0  0  0  0  0  0  0  0  0  0  0  0
    1.8899   -4.8088    0.1350 H   0  0  0  0  0  0  0  0  0  0  0  0
    5.8233   -1.3471    0.1315 H   0  0  0  0  0  0  0  0  0  0  0  0
   -2.1717   -3.4884    0.0563 H   0  0  0  0  0  0  0  0  0  0  0  0
   -0.5568   -5.2637    0.1130 H   0  0  0  0  0  0  0  0  0  0  0  0
    7.4165    1.4674   -1.7172 H   0  0  0  0  0  0  0  0  0  0  0  0
    7.3149    0.2450   -0.4480 H   0  0  0  0  0  0  0  0  0  0  0  0
    6.2867    0.1286   -1.9013 H   0  0  0  0  0  0  0  0  0  0  0  0
    5.6349    5.4989    0.2385 H   0  0  0  0  0  0  0  0  0  0  0  0
    4.6878    5.1033    1.6782 H   0  0  0  0  0  0  0  0  0  0  0  0
    3.8744    5.3827    0.1209 H   0  0  0  0  0  0  0  0  0  0  0  0
  1 26  1  0  0  0  0
  1 29  1  0  0  0  0
  2 20  2  0  0  0  0
  3 23  2  0  0  0  0
  4 11  1  0  0  0  0
  4 12  1  0  0  0  0
  4 18  1  0  0  0  0
  5  6  1  0  0  0  0
  5 13  1  0  0  0  0
  5 14  1  0  0  0  0
  6 23  1  0  0  0  0
  6 43  1  0  0  0  0
  7 21  1  0  0  0  0
  7 23  1  0  0  0  0
  7 44  1  0  0  0  0
  8  9  1  0  0  0  0
  8 22  1  0  0  0  0
  8 46  1  0  0  0  0
  9 19  2  0  0  0  0
 10 28  1  0  0  0  0
 10 29  2  0  0  0  0
 11 13  1  0  0  0  0
 11 32  1  0  0  0  0
 11 33  1  0  0  0  0
 12 14  1  0  0  0  0
 12 34  1  0  0  0  0
 12 35  1  0  0  0  0
 13 36  1  0  0  0  0
 13 37  1  0  0  0  0
 14 38  1  0  0  0  0
 14 39  1  0  0  0  0
 15 17  2  0  0  0  0
 15 20  1  0  0  0  0
 15 21  1  0  0  0  0
 16 19  1  0  0  0  0
 16 20  1  0  0  0  0
 16 22  2  0  0  0  0
 17 19  1  0  0  0  0
 17 24  1  0  0  0  0
 18 40  1  0  0  0  0
 18 41  1  0  0  0  0
 18 42  1  0  0  0  0
 21 25  2  0  0  0  0
 22 26  1  0  0  0  0
 24 27  2  0  0  0  0
 24 45  1  0  0  0  0
 25 27  1  0  0  0  0
 25 47  1  0  0  0  0
 26 28  2  0  0  0  0
 27 48  1  0  0  0  0
 28 30  1  0  0  0  0
 29 31  1  0  0  0  0
 30 49  1  0  0  0  0
 30 50  1  0  0  0  0
 30 51  1  0  0  0  0
 31 52  1  0  0  0  0
 31 53  1  0  0  0  0
 31 54  1  0  0  0  0
M  END
> <PUBCHEM_COMPOUND_CID>
5288018

> <PUBCHEM_CONFORMER_RMSD>
0.8

> <PUBCHEM_CONFORMER_DIVERSEORDER>
1
60
24
48
51
75
28
35
47
49
57
39
58
52
40
27
20
73
71
32
63
82
68
72
33
31
66
69
43
77
64
14
29
12
17
11
80
55
84
18
42
70
74
50
30
87
54
62
21
78
25
10
23
45
61
56
26
13
36
81
53
44
19
6
59
2
85
34
16
67
65
46
8
83
9
41
37
76
86
79
22
15
4
38
7
3
5

> <PUBCHEM_MMFF94_PARTIAL_CHARGES>
37
1 -0.08
10 -0.57
11 0.27
12 0.27
13 0.27
14 0.27
15 0.09
16 -0.09
17 0.05
18 0.27
19 0.23
2 -0.57
20 0.57
21 0.12
22 -0.15
23 0.69
24 -0.15
25 -0.15
26 0.04
27 -0.15
28 0.05
29 0.2
3 -0.57
30 0.18
31 0.18
4 -0.81
43 0.37
44 0.37
45 0.15
46 0.27
47 0.15
48 0.15
5 -0.55
6 -0.42
7 -0.55
8 0.3
9 -0.71

> <PUBCHEM_EFFECTIVE_ROTOR_COUNT>
6.2

> <PUBCHEM_PHARMACOPHORE_FEATURES>
13
1 10 acceptor
1 2 acceptor
1 3 acceptor
1 4 cation
1 6 donor
1 7 donor
1 8 donor
1 9 acceptor
5 1 10 26 28 29 rings
5 15 16 17 19 20 rings
5 8 9 16 19 22 rings
6 15 17 21 24 25 27 rings
6 4 5 11 12 13 14 rings

> <PUBCHEM_HEAVY_ATOM_COUNT>
31

> <PUBCHEM_ATOM_DEF_STEREO_COUNT>
0

> <PUBCHEM_ATOM_UDEF_STEREO_COUNT>
0

> <PUBCHEM_BOND_DEF_STEREO_COUNT>
0

> <PUBCHEM_BOND_UDEF_STEREO_COUNT>
0

> <PUBCHEM_ISOTOPIC_ATOM_COUNT>
0

> <PUBCHEM_COMPONENT_COUNT>
1

> <PUBCHEM_CACTVS_TAUTO_COUNT>
40

> <PUBCHEM_CONFORMER_ID>
0050B05200000001

> <PUBCHEM_MMFF94_ENERGY>
86.915

> <PUBCHEM_FEATURE_SELFOVERLAP>
66.41

> <PUBCHEM_SHAPE_FINGERPRINT>
10 15 17822014198970775289
10050765 1 18410574023812581387
10411042 1 17617658757190332010
10673678 19 18412549807979243851
10675989 125 18411979148601834872
10816530 90 18408888413311563902
11297010 23 18272655641116998126
11410812 94 14835860430470705168
1200032 147 18260551125848209832
12107183 9 18263627602997187938
12925494 130 18338233894045710496
13540713 5 18338215155288904074
13878862 14 18336528452821714852
13944108 23 18269558234566200536
14117953 113 18341050732042479702
14142895 15 18411978058513390133
14251764 75 18411136969633467977
14415360 78 18336814403587059589
14565420 104 18260264123222741659
14790565 3 18411702088387072626
15183329 4 17775567525005291737
15198563 99 17408238526732501422
15347590 135 11602831241701671646
15400415 2 18266458887734417984
15475509 35 16009585742762888074
18335252 114 18340768152921466558
19301679 30 8430322350582995787
19427546 62 18409449176409687419
20691028 202 18338797922115362453
20715895 44 18340203089997311248
21033648 144 18261104176292611919
21033648 29 18338228388219422976
21279426 13 18271536407062448164
23522609 53 17631461069167440601
23559900 14 18270969072406593854
23569914 152 17986138274459760652
23569914 2 16913098668500898504
23845131 108 18333735719353042387
255183 451 17627800708484871614
27425 322 18343021086211600791
2748736 6 18339349859767147737
3178227 256 18261950727047328642
335352 9 18339362964435457342
3472631 163 18272371970884419503
3627633 1 16608006812995824355
376196 1 18339359777279592658
397830 11 18114758096409278443
4073 2 18261116254046947499
44555599 121 18129666271428352673
5104073 3 18186799214077472394
550186 72 16537638721995080348
58902169 19 17917138416860994543
5951187 136 18200884997637604710
6201320 221 13756967866266699284
6697151 62 17176839270164659915
6898599 12 18129094696747759503
9849439 229 18335703874967118959

> <PUBCHEM_SHAPE_MULTIPOLES>
595.21
20.84
5.51
0.9
36.78
0.29
-0.08
-26.44
-2.47
-6.25
0.78
0.71
-0.43
0.44

> <PUBCHEM_SHAPE_SELFOVERLAP>
1300.493

> <PUBCHEM_SHAPE_VOLUME>
329.3

> <PUBCHEM_COORDINATE_TYPE>
2
5
10

$$$$
