49830522
  -OEChem-10062121523D

 36 38  0     0  0  0  0  0  0999 V2000
    2.0539    3.0236   -1.0878 F   0  0  0  0  0  0  0  0  0  0  0  0
   -5.4882    0.6975   -0.3531 O   0  0  0  0  0  0  0  0  0  0  0  0
   -4.1611   -0.9587   -1.1669 O   0  0  0  0  0  0  0  0  0  0  0  0
   -1.8612   -1.1273    0.3850 N   0  0  0  0  0  0  0  0  0  0  0  0
    2.7692   -1.6196   -0.1283 N   0  0  0  0  0  0  0  0  0  0  0  0
    0.4554   -1.3409    0.1294 N   0  0  0  0  0  0  0  0  0  0  0  0
   -0.9563   -3.2794    0.2152 N   0  0  0  0  0  0  0  0  0  0  0  0
    1.4152   -3.5329   -0.0489 N   0  0  0  0  0  0  0  0  0  0  0  0
   -2.0147    0.2757    0.4491 C   0  0  0  0  0  0  0  0  0  0  0  0
   -3.1803    0.8904   -0.0078 C   0  0  0  0  0  0  0  0  0  0  0  0
   -0.9807    1.0477    0.9789 C   0  0  0  0  0  0  0  0  0  0  0  0
    3.2214   -0.2868   -0.1311 C   0  0  0  0  0  0  0  0  0  0  0  0
   -3.3122    2.2770    0.0651 C   0  0  0  0  0  0  0  0  0  0  0  0
   -0.7338   -1.9553    0.2366 C   0  0  0  0  0  0  0  0  0  0  0  0
   -1.1125    2.4345    1.0518 C   0  0  0  0  0  0  0  0  0  0  0  0
    1.4842   -2.1924   -0.0106 C   0  0  0  0  0  0  0  0  0  0  0  0
   -2.2783    3.0491    0.5949 C   0  0  0  0  0  0  0  0  0  0  0  0
    2.3971    0.7280   -0.6172 C   0  0  0  0  0  0  0  0  0  0  0  0
    4.4938    0.0193    0.3517 C   0  0  0  0  0  0  0  0  0  0  0  0
   -4.2791    0.1119   -0.5657 C   0  0  0  0  0  0  0  0  0  0  0  0
    2.8451    2.0488   -0.6206 C   0  0  0  0  0  0  0  0  0  0  0  0
    4.9418    1.3402    0.3483 C   0  0  0  0  0  0  0  0  0  0  0  0
    4.1175    2.3551   -0.1378 C   0  0  0  0  0  0  0  0  0  0  0  0
    0.1639   -4.0055    0.0697 C   0  0  0  0  0  0  0  0  0  0  0  0
   -2.7307   -1.6497    0.3501 H   0  0  0  0  0  0  0  0  0  0  0  0
   -0.0792    0.6120    1.3956 H   0  0  0  0  0  0  0  0  0  0  0  0
   -4.2018    2.7879   -0.2939 H   0  0  0  0  0  0  0  0  0  0  0  0
    3.5088   -2.3147   -0.0933 H   0  0  0  0  0  0  0  0  0  0  0  0
   -0.3119    3.0350    1.4739 H   0  0  0  0  0  0  0  0  0  0  0  0
   -2.3803    4.1289    0.6514 H   0  0  0  0  0  0  0  0  0  0  0  0
    1.4203    0.5304   -1.0453 H   0  0  0  0  0  0  0  0  0  0  0  0
    5.1456   -0.7622    0.7340 H   0  0  0  0  0  0  0  0  0  0  0  0
    5.9323    1.5788    0.7244 H   0  0  0  0  0  0  0  0  0  0  0  0
    4.4659    3.3836   -0.1406 H   0  0  0  0  0  0  0  0  0  0  0  0
    0.0462   -5.0817    0.0456 H   0  0  0  0  0  0  0  0  0  0  0  0
   -6.2221    0.1678   -0.7315 H   0  0  0  0  0  0  0  0  0  0  0  0
  1 21  1  0  0  0  0
  2 20  1  0  0  0  0
  2 36  1  0  0  0  0
  3 20  2  0  0  0  0
  4  9  1  0  0  0  0
  4 14  1  0  0  0  0
  4 25  1  0  0  0  0
  5 12  1  0  0  0  0
  5 16  1  0  0  0  0
  5 28  1  0  0  0  0
  6 14  1  0  0  0  0
  6 16  2  0  0  0  0
  7 14  2  0  0  0  0
  7 24  1  0  0  0  0
  8 16  1  0  0  0  0
  8 24  2  0  0  0  0
  9 10  1  0  0  0  0
  9 11  2  0  0  0  0
 10 13  2  0  0  0  0
 10 20  1  0  0  0  0
 11 15  1  0  0  0  0
 11 26  1  0  0  0  0
 12 18  2  0  0  0  0
 12 19  1  0  0  0  0
 13 17  1  0  0  0  0
 13 27  1  0  0  0  0
 15 17  2  0  0  0  0
 15 29  1  0  0  0  0
 17 30  1  0  0  0  0
 18 21  1  0  0  0  0
 18 31  1  0  0  0  0
 19 22  2  0  0  0  0
 19 32  1  0  0  0  0
 21 23  2  0  0  0  0
 22 23  1  0  0  0  0
 22 33  1  0  0  0  0
 23 34  1  0  0  0  0
 24 35  1  0  0  0  0
M  END
> <PUBCHEM_COMPOUND_CID>
49830522

> <PUBCHEM_CONFORMER_RMSD>
1

> <PUBCHEM_CONFORMER_DIVERSEORDER>
1
10
49
75
76
54
43
61
63
99
80
51
23
41
72
67
17
37
65
78
34
77
11
74
20
96
56
64
98
89
15
83
68
13
95
70
33
8
46
35
93
101
18
82
57
38
91
12
59
47
9
28
60
44
27
88
97
19
84
21
22
69
32
62
94
81
86
40
14
79
73
92
42
87
53
48
31
26
55
29
16
45
24
58
36
66
39
71
52
50
4
85
90
6
100
5
30
25
7
3
2

> <PUBCHEM_MMFF94_PARTIAL_CHARGES>
36
1 -0.19
10 0.09
11 -0.15
12 0.1
13 -0.15
14 0.72
15 -0.15
16 0.72
17 -0.15
18 -0.15
19 -0.15
2 -0.65
20 0.63
21 0.19
22 -0.15
23 -0.15
24 0.47
25 0.4
26 0.15
27 0.15
28 0.4
29 0.15
3 -0.57
30 0.15
31 0.15
32 0.15
33 0.15
34 0.15
35 0.15
36 0.5
4 -0.6
5 -0.6
6 -0.62
7 -0.62
8 -0.62
9 0.1

> <PUBCHEM_EFFECTIVE_ROTOR_COUNT>
5

> <PUBCHEM_PHARMACOPHORE_FEATURES>
10
1 2 acceptor
1 3 acceptor
1 4 donor
1 5 donor
3 2 3 20 anion
4 4 6 7 14 cation
4 5 6 8 16 cation
6 12 18 19 21 22 23 rings
6 6 7 8 14 16 24 rings
6 9 10 11 13 15 17 rings

> <PUBCHEM_HEAVY_ATOM_COUNT>
24

> <PUBCHEM_ATOM_DEF_STEREO_COUNT>
0

> <PUBCHEM_ATOM_UDEF_STEREO_COUNT>
0

> <PUBCHEM_BOND_DEF_STEREO_COUNT>
0

> <PUBCHEM_BOND_UDEF_STEREO_COUNT>
0

> <PUBCHEM_ISOTOPIC_ATOM_COUNT>
0

> <PUBCHEM_COMPONENT_COUNT>
1

> <PUBCHEM_CACTVS_TAUTO_COUNT>
21

> <PUBCHEM_CONFORMER_ID>
02F85A7A00000001

> <PUBCHEM_MMFF94_ENERGY>
88.0447

> <PUBCHEM_FEATURE_SELFOVERLAP>
50.846

> <PUBCHEM_SHAPE_FINGERPRINT>
10090160 65 18409441479949073047
10498660 4 18340211911464225248
108634 29 18271816777995076692
11135609 187 18410853304793915249
11370993 70 18410009940287623288
12403260 363 18339071593241744602
12788726 201 17756987075565471130
12978246 48 18335989765249448152
13617811 41 18339626911666541457
138480 1 17689720757737046266
14767858 380 18269822259723621983
14787075 74 18201714093761060181
14790565 3 18341621412747493785
15403338 16 16951666018365271450
15840311 113 18122355571740108577
17492 89 18124877855144587815
192875 21 18409446994613565892
19319366 153 18339910559696133831
19591789 44 18050572034689414635
19930381 70 18264770965318175049
20642791 105 18120083142200923114
20715895 44 18334849498777175149
22113638 7 18263644137661675028
22393880 68 18126290748723038988
22749437 52 18410017628316084400
23227448 37 18338236084415708463
23559900 14 18052249592722019635
25265897 201 17268929978459486733
352729 6 18338248174917445026
463206 1 18271521013409230789
474 4 18408886200543530819
484989 97 18048032162681994119
6328613 192 18261682571338943004
6371009 1 18338784659540890344
67856867 119 18194391204412305587
9709674 26 18341622490214033350
9981440 41 18408884035869711770

> <PUBCHEM_SHAPE_MULTIPOLES>
449.99
9.13
4.61
0.86
0.41
3.08
-0.02
-5.45
-1.39
-0.84
0.2
0.2
-0.32
-0.77

> <PUBCHEM_SHAPE_SELFOVERLAP>
984.129

> <PUBCHEM_SHAPE_VOLUME>
240.3

> <PUBCHEM_COORDINATE_TYPE>
2
5
10

$$$$
