10456958
  -OEChem-10052120443D

 62 65  0     0  0  0  0  0  0999 V2000
   -0.7848   -3.8184   -0.4316 O   0  0  0  0  0  0  0  0  0  0  0  0
    5.6119   -1.0739    0.2317 O   0  0  0  0  0  0  0  0  0  0  0  0
   -8.8628    0.0399    1.0289 O   0  0  0  0  0  0  0  0  0  0  0  0
   -8.9708    2.6215    0.0039 O   0  0  0  0  0  0  0  0  0  0  0  0
   -0.5842    0.5128   -0.1276 N   0  0  0  0  0  0  0  0  0  0  0  0
    0.7482   -2.2016   -0.3189 N   0  0  0  0  0  0  0  0  0  0  0  0
    9.9719    0.3060    0.2806 N   0  0  0  0  0  0  0  0  0  0  0  0
    5.7885    1.0621   -0.6533 N   0  0  0  0  0  0  0  0  0  0  0  0
   -1.7171   -0.3034   -0.1858 C   0  0  0  0  0  0  0  0  0  0  0  0
    0.7906    0.2793   -0.1438 C   0  0  0  0  0  0  0  0  0  0  0  0
    7.8909    1.6295    0.5184 C   0  0  0  0  0  0  0  0  0  0  0  0
    1.4004   -0.9654   -0.2318 C   0  0  0  0  0  0  0  0  0  0  0  0
   -1.7368   -1.6951   -0.2847 C   0  0  0  0  0  0  0  0  0  0  0  0
    9.4216    1.6415    0.4782 C   0  0  0  0  0  0  0  0  0  0  0  0
    7.2306    1.0859   -0.7471 C   0  0  0  0  0  0  0  0  0  0  0  0
    3.6136    0.0902   -0.1557 C   0  0  0  0  0  0  0  0  0  0  0  0
   -4.1857   -0.2788   -0.1869 C   0  0  0  0  0  0  0  0  0  0  0  0
   -2.9612    0.3811   -0.1387 C   0  0  0  0  0  0  0  0  0  0  0  0
    2.8118   -1.0456   -0.2369 C   0  0  0  0  0  0  0  0  0  0  0  0
   -0.5642   -2.6034   -0.3472 C   0  0  0  0  0  0  0  0  0  0  0  0
    1.6251    1.4221   -0.0628 C   0  0  0  0  0  0  0  0  0  0  0  0
   -2.9940   -2.3512   -0.3327 C   0  0  0  0  0  0  0  0  0  0  0  0
    3.0161    1.3338   -0.0681 C   0  0  0  0  0  0  0  0  0  0  0  0
   -4.2013   -1.6554   -0.2846 C   0  0  0  0  0  0  0  0  0  0  0  0
    5.0625   -0.0301   -0.1638 C   0  0  0  0  0  0  0  0  0  0  0  0
   -5.4235    0.4674   -0.1357 C   0  0  0  0  0  0  0  0  0  0  0  0
    9.5768   -0.5818    1.3758 C   0  0  0  0  0  0  0  0  0  0  0  0
   11.4309    0.3600    0.1724 C   0  0  0  0  0  0  0  0  0  0  0  0
   -6.5630   -0.1079    0.4273 C   0  0  0  0  0  0  0  0  0  0  0  0
   -5.4786    1.7634   -0.6495 C   0  0  0  0  0  0  0  0  0  0  0  0
   -7.7566    0.6121    0.4765 C   0  0  0  0  0  0  0  0  0  0  0  0
   -6.6722    2.4834   -0.6003 C   0  0  0  0  0  0  0  0  0  0  0  0
   -7.8113    1.9077   -0.0372 C   0  0  0  0  0  0  0  0  0  0  0  0
   -8.7234   -1.2876    1.5313 C   0  0  0  0  0  0  0  0  0  0  0  0
    7.5526    2.6654    0.6596 H   0  0  0  0  0  0  0  0  0  0  0  0
    7.5192    1.0970    1.4018 H   0  0  0  0  0  0  0  0  0  0  0  0
    9.8011    2.0964    1.4026 H   0  0  0  0  0  0  0  0  0  0  0  0
    9.7331    2.2932   -0.3482 H   0  0  0  0  0  0  0  0  0  0  0  0
    7.5746    0.0693   -0.9637 H   0  0  0  0  0  0  0  0  0  0  0  0
    7.4870    1.7156   -1.6060 H   0  0  0  0  0  0  0  0  0  0  0  0
   -0.8114    1.5018   -0.0587 H   0  0  0  0  0  0  0  0  0  0  0  0
   -2.9284    1.4650   -0.0268 H   0  0  0  0  0  0  0  0  0  0  0  0
    3.2879   -2.0234   -0.3111 H   0  0  0  0  0  0  0  0  0  0  0  0
    1.3857   -2.9940   -0.3742 H   0  0  0  0  0  0  0  0  0  0  0  0
    1.1785    2.4131    0.0138 H   0  0  0  0  0  0  0  0  0  0  0  0
   -3.0638   -3.4345   -0.4173 H   0  0  0  0  0  0  0  0  0  0  0  0
    5.3027    1.8752   -1.0160 H   0  0  0  0  0  0  0  0  0  0  0  0
    3.5829    2.2544    0.0281 H   0  0  0  0  0  0  0  0  0  0  0  0
   -5.1170   -2.2346   -0.3607 H   0  0  0  0  0  0  0  0  0  0  0  0
    8.5078   -0.8133    1.3510 H   0  0  0  0  0  0  0  0  0  0  0  0
   10.0811   -1.5510    1.2799 H   0  0  0  0  0  0  0  0  0  0  0  0
    9.8309   -0.1697    2.3593 H   0  0  0  0  0  0  0  0  0  0  0  0
   11.8396   -0.6365   -0.0295 H   0  0  0  0  0  0  0  0  0  0  0  0
   11.7313    0.9964   -0.6675 H   0  0  0  0  0  0  0  0  0  0  0  0
   11.8992    0.7476    1.0844 H   0  0  0  0  0  0  0  0  0  0  0  0
   -6.4827   -1.0999    0.8551 H   0  0  0  0  0  0  0  0  0  0  0  0
   -4.6273    2.2412   -1.1265 H   0  0  0  0  0  0  0  0  0  0  0  0
   -6.7032    3.4893   -1.0106 H   0  0  0  0  0  0  0  0  0  0  0  0
   -8.8196    3.4950   -0.3962 H   0  0  0  0  0  0  0  0  0  0  0  0
   -9.7015   -1.5867    1.9228 H   0  0  0  0  0  0  0  0  0  0  0  0
   -8.4715   -1.9979    0.7363 H   0  0  0  0  0  0  0  0  0  0  0  0
   -8.0213   -1.3303    2.3710 H   0  0  0  0  0  0  0  0  0  0  0  0
  1 20  2  0  0  0  0
  2 25  2  0  0  0  0
  3 31  1  0  0  0  0
  3 34  1  0  0  0  0
  4 33  1  0  0  0  0
  4 59  1  0  0  0  0
  5  9  1  0  0  0  0
  5 10  1  0  0  0  0
  5 41  1  0  0  0  0
  6 12  1  0  0  0  0
  6 20  1  0  0  0  0
  6 44  1  0  0  0  0
  7 14  1  0  0  0  0
  7 27  1  0  0  0  0
  7 28  1  0  0  0  0
  8 15  1  0  0  0  0
  8 25  1  0  0  0  0
  8 47  1  0  0  0  0
  9 13  2  0  0  0  0
  9 18  1  0  0  0  0
 10 12  2  0  0  0  0
 10 21  1  0  0  0  0
 11 14  1  0  0  0  0
 11 15  1  0  0  0  0
 11 35  1  0  0  0  0
 11 36  1  0  0  0  0
 12 19  1  0  0  0  0
 13 20  1  0  0  0  0
 13 22  1  0  0  0  0
 14 37  1  0  0  0  0
 14 38  1  0  0  0  0
 15 39  1  0  0  0  0
 15 40  1  0  0  0  0
 16 19  2  0  0  0  0
 16 23  1  0  0  0  0
 16 25  1  0  0  0  0
 17 18  2  0  0  0  0
 17 24  1  0  0  0  0
 17 26  1  0  0  0  0
 18 42  1  0  0  0  0
 19 43  1  0  0  0  0
 21 23  2  0  0  0  0
 21 45  1  0  0  0  0
 22 24  2  0  0  0  0
 22 46  1  0  0  0  0
 23 48  1  0  0  0  0
 24 49  1  0  0  0  0
 26 29  2  0  0  0  0
 26 30  1  0  0  0  0
 27 50  1  0  0  0  0
 27 51  1  0  0  0  0
 27 52  1  0  0  0  0
 28 53  1  0  0  0  0
 28 54  1  0  0  0  0
 28 55  1  0  0  0  0
 29 31  1  0  0  0  0
 29 56  1  0  0  0  0
 30 32  2  0  0  0  0
 30 57  1  0  0  0  0
 31 33  2  0  0  0  0
 32 33  1  0  0  0  0
 32 58  1  0  0  0  0
 34 60  1  0  0  0  0
 34 61  1  0  0  0  0
 34 62  1  0  0  0  0
M  END
> <PUBCHEM_COMPOUND_CID>
10456958

> <PUBCHEM_CONFORMER_RMSD>
1

> <PUBCHEM_CONFORMER_DIVERSEORDER>
15
30
27
12
11
42
20
6
35
26
29
5
14
34
28
46
39
40
52
48
43
3
41
37
21
8
22
33
44
9
7
13
19
31
45
10
38
36
16
4
18
49
32
47
51
2
25
17
1
24
50
23

> <PUBCHEM_MMFF94_PARTIAL_CHARGES>
44
1 -0.57
10 0.1
12 0.12
13 0.09
14 0.27
15 0.3
16 0.09
18 -0.15
19 -0.15
2 -0.57
20 0.54
21 -0.15
22 -0.15
23 -0.15
24 -0.15
25 0.54
27 0.27
28 0.27
29 -0.15
3 -0.36
30 -0.15
31 0.08
32 -0.15
33 0.08
34 0.28
4 -0.53
41 0.4
42 0.15
43 0.15
44 0.37
45 0.15
46 0.15
47 0.37
48 0.15
49 0.15
5 -0.6
56 0.15
57 0.15
58 0.15
59 0.45
6 -0.55
7 -0.81
8 -0.73
9 0.1

> <PUBCHEM_EFFECTIVE_ROTOR_COUNT>
8.4

> <PUBCHEM_PHARMACOPHORE_FEATURES>
13
1 1 acceptor
1 2 acceptor
1 3 acceptor
1 4 donor
1 5 cation
1 5 donor
1 6 donor
1 7 cation
1 8 donor
6 10 12 16 19 21 23 rings
6 26 29 30 31 32 33 rings
6 9 13 17 18 22 24 rings
7 5 6 9 10 12 13 20 rings

> <PUBCHEM_HEAVY_ATOM_COUNT>
34

> <PUBCHEM_ATOM_DEF_STEREO_COUNT>
0

> <PUBCHEM_ATOM_UDEF_STEREO_COUNT>
0

> <PUBCHEM_BOND_DEF_STEREO_COUNT>
0

> <PUBCHEM_BOND_UDEF_STEREO_COUNT>
0

> <PUBCHEM_ISOTOPIC_ATOM_COUNT>
0

> <PUBCHEM_COMPONENT_COUNT>
1

> <PUBCHEM_CACTVS_TAUTO_COUNT>
65

> <PUBCHEM_CONFORMER_ID>
009F8F7E0000000F

> <PUBCHEM_MMFF94_ENERGY>
136.618

> <PUBCHEM_FEATURE_SELFOVERLAP>
65.984

> <PUBCHEM_SHAPE_FINGERPRINT>
10 15 18333734620072639347
10050765 1 18051410975152057244
10165383 225 18411979148638764453
10369192 42 18411418402319811469
10674148 151 18334292094080012592
11135609 99 8646477523315146009
11135926 11 18187634817735537198
11409948 35 17916872315044411718
11828042 206 12175621759144843307
12013929 2 18272653447000248744
12089408 11 18334855057002543020
12144603 126 18186518813944352202
12838862 33 18340756092041668252
13740195 50 18260551173235359275
14251764 46 18273778251157771844
14394314 77 18333725832527197632
15247644 1 14779267518226264160
15347591 1 18120094150961608420
15461852 350 17274813701138919622
1577012 14 18413101771053290526
15890870 6 18411980252577241213
16087824 20 18411418375833504628
16992752 21 9223235156421483046
18608769 82 18410860988917233851
19302320 297 18260551156303962100
19315958 150 18272373062397021294
19611394 137 17823997808711354809
21033648 29 18271515511234053265
21792934 111 17774996905015662360
21927370 108 13984655937106141422
232437 2 18186802487559404432
23559900 14 18059851826517054632
24771293 8 18409731755793880269
306946 40 16988269959778672440
3092352 35 17458065988905699170
335352 9 18413105082403997420
4073 2 18113626685875220211
54039377 194 8934997075029760225

> <PUBCHEM_SHAPE_MULTIPOLES>
656.3
35.97
2.7
0.87
51.08
1.17
-0.19
-19.18
-10.73
-3.67
0.43
-0.23
0.08
0.62

> <PUBCHEM_SHAPE_SELFOVERLAP>
1422.816

> <PUBCHEM_SHAPE_VOLUME>
357.9

> <PUBCHEM_COORDINATE_TYPE>
2
5
10

$$$$
