44352929
  -OEChem-10062121583D

 80 87  0     1  0  0  0  0  0999 V2000
   -0.5112    1.1509    2.9525 O   0  0  0  0  0  0  0  0  0  0  0  0
    3.0364    0.5863    1.9776 O   0  0  0  0  0  0  0  0  0  0  0  0
    1.7056   -0.7097   -1.9558 O   0  0  0  0  0  0  0  0  0  0  0  0
   -4.8187   -1.3817   -2.4898 O   0  0  0  0  0  0  0  0  0  0  0  0
    0.2950   -0.6762    1.6991 N   0  0  0  0  0  0  0  0  0  0  0  0
   -1.6817    1.4709    0.9779 N   0  0  0  0  0  0  0  0  0  0  0  0
    1.3319    1.5434   -0.1884 N   0  0  2  0  0  0  0  0  0  0  0  0
   -3.4818   -3.2873   -2.2557 N   0  0  0  0  0  0  0  0  0  0  0  0
    0.6489    0.3663    2.6643 C   0  0  1  0  0  0  0  0  0  0  0  0
    1.8267    1.2830    2.2338 C   0  0  2  0  0  0  0  0  0  0  0  0
    1.4900    2.2222    1.0752 C   0  0  2  0  0  0  0  0  0  0  0  0
   -0.8848    2.1112    1.9914 C   0  0  2  0  0  0  0  0  0  0  0  0
    0.2391    3.0021    1.4537 C   0  0  0  0  0  0  0  0  0  0  0  0
   -0.7694   -0.8165    0.8302 C   0  0  0  0  0  0  0  0  0  0  0  0
   -1.7127    0.1981    0.4924 C   0  0  0  0  0  0  0  0  0  0  0  0
   -0.9814   -2.0660    0.1309 C   0  0  0  0  0  0  0  0  0  0  0  0
   -2.7364   -0.1871   -0.4660 C   0  0  0  0  0  0  0  0  0  0  0  0
    0.9449   -0.2298    4.0620 C   0  0  0  0  0  0  0  0  0  0  0  0
    0.9458   -1.9175    1.5203 C   0  0  0  0  0  0  0  0  0  0  0  0
   -2.7523    2.0681    0.3087 C   0  0  0  0  0  0  0  0  0  0  0  0
    0.1897   -2.7560    0.6461 C   0  0  0  0  0  0  0  0  0  0  0  0
   -1.9889   -2.4282   -0.7589 C   0  0  0  0  0  0  0  0  0  0  0  0
   -2.9052   -1.4345   -1.0581 C   0  0  0  0  0  0  0  0  0  0  0  0
   -3.3991    1.1204   -0.5374 C   0  0  0  0  0  0  0  0  0  0  0  0
    2.6350    1.1559   -0.7308 C   0  0  0  0  0  0  0  0  0  0  0  0
   -2.2994   -3.6759   -1.5167 C   0  0  0  0  0  0  0  0  0  0  0  0
    0.6162    2.3919   -1.1424 C   0  0  0  0  0  0  0  0  0  0  0  0
    2.1565   -2.4112    2.0578 C   0  0  0  0  0  0  0  0  0  0  0  0
   -3.8700   -1.9734   -2.0139 C   0  0  0  0  0  0  0  0  0  0  0  0
   -3.2116    3.3999    0.3920 C   0  0  0  0  0  0  0  0  0  0  0  0
    0.6646   -4.0672    0.3799 C   0  0  0  0  0  0  0  0  0  0  0  0
    2.5340    0.4446   -2.0868 C   0  0  1  0  0  0  0  0  0  0  0  0
   -4.5156    1.5760   -1.2845 C   0  0  0  0  0  0  0  0  0  0  0  0
    4.1734    1.3916    2.2598 C   0  0  0  0  0  0  0  0  0  0  0  0
    2.5921   -3.7066    1.7656 C   0  0  0  0  0  0  0  0  0  0  0  0
    1.8516   -4.5315    0.9413 C   0  0  0  0  0  0  0  0  0  0  0  0
   -4.3144    3.7981   -0.3621 C   0  0  0  0  0  0  0  0  0  0  0  0
   -4.9605    2.8978   -1.1911 C   0  0  0  0  0  0  0  0  0  0  0  0
    3.8912    0.0298   -2.6692 C   0  0  0  0  0  0  0  0  0  0  0  0
    4.8027    1.2388   -2.9127 C   0  0  0  0  0  0  0  0  0  0  0  0
    6.1649    0.8058   -3.4557 C   0  0  0  0  0  0  0  0  0  0  0  0
    7.0588    2.0031   -3.7365 C   0  0  0  0  0  0  0  0  0  0  0  0
    1.9985    1.9380    3.1038 H   0  0  0  0  0  0  0  0  0  0  0  0
    2.2834    2.9752    0.9742 H   0  0  0  0  0  0  0  0  0  0  0  0
   -1.5772    2.7688    2.5308 H   0  0  0  0  0  0  0  0  0  0  0  0
    0.5415    3.6303    2.3077 H   0  0  0  0  0  0  0  0  0  0  0  0
   -0.1048    3.7473    0.7311 H   0  0  0  0  0  0  0  0  0  0  0  0
    0.2021   -0.9900    4.3332 H   0  0  0  0  0  0  0  0  0  0  0  0
    0.8788    0.5487    4.8335 H   0  0  0  0  0  0  0  0  0  0  0  0
    1.9387   -0.6683    4.1550 H   0  0  0  0  0  0  0  0  0  0  0  0
    3.1293    0.4179   -0.1048 H   0  0  0  0  0  0  0  0  0  0  0  0
    3.2811    2.0359   -0.8084 H   0  0  0  0  0  0  0  0  0  0  0  0
   -1.5106   -3.9416   -2.2247 H   0  0  0  0  0  0  0  0  0  0  0  0
   -2.5487   -4.5123   -0.8593 H   0  0  0  0  0  0  0  0  0  0  0  0
    0.4273    1.8649   -2.0822 H   0  0  0  0  0  0  0  0  0  0  0  0
    1.1719    3.3083   -1.3764 H   0  0  0  0  0  0  0  0  0  0  0  0
   -0.3976    2.6684   -0.8658 H   0  0  0  0  0  0  0  0  0  0  0  0
    2.7886   -1.8038    2.6934 H   0  0  0  0  0  0  0  0  0  0  0  0
   -2.7170    4.1237    1.0334 H   0  0  0  0  0  0  0  0  0  0  0  0
    0.1063   -4.7263   -0.2804 H   0  0  0  0  0  0  0  0  0  0  0  0
    2.0759    1.0922   -2.8404 H   0  0  0  0  0  0  0  0  0  0  0  0
   -5.0504    0.9085   -1.9504 H   0  0  0  0  0  0  0  0  0  0  0  0
   -3.9779   -3.9083   -2.8871 H   0  0  0  0  0  0  0  0  0  0  0  0
    5.0655    0.7930    2.0541 H   0  0  0  0  0  0  0  0  0  0  0  0
    4.1952    1.6746    3.3170 H   0  0  0  0  0  0  0  0  0  0  0  0
    4.2161    2.2821    1.6283 H   0  0  0  0  0  0  0  0  0  0  0  0
    3.5256   -4.0652    2.1911 H   0  0  0  0  0  0  0  0  0  0  0  0
    2.1984   -5.5367    0.7204 H   0  0  0  0  0  0  0  0  0  0  0  0
   -4.6668    4.8239   -0.2978 H   0  0  0  0  0  0  0  0  0  0  0  0
   -5.8184    3.2184   -1.7757 H   0  0  0  0  0  0  0  0  0  0  0  0
    3.7348   -0.5153   -3.6087 H   0  0  0  0  0  0  0  0  0  0  0  0
    4.3780   -0.6819   -1.9902 H   0  0  0  0  0  0  0  0  0  0  0  0
    4.9764    1.7905   -1.9841 H   0  0  0  0  0  0  0  0  0  0  0  0
    4.3209    1.9260   -3.6185 H   0  0  0  0  0  0  0  0  0  0  0  0
    1.6313   -1.1214   -2.8334 H   0  0  0  0  0  0  0  0  0  0  0  0
    6.6609    0.1457   -2.7345 H   0  0  0  0  0  0  0  0  0  0  0  0
    6.0316    0.2337   -4.3812 H   0  0  0  0  0  0  0  0  0  0  0  0
    6.6046    2.6663   -4.4796 H   0  0  0  0  0  0  0  0  0  0  0  0
    8.0266    1.6706   -4.1247 H   0  0  0  0  0  0  0  0  0  0  0  0
    7.2391    2.5809   -2.8244 H   0  0  0  0  0  0  0  0  0  0  0  0
  1  9  1  0  0  0  0
  1 12  1  0  0  0  0
  2 10  1  0  0  0  0
  2 34  1  0  0  0  0
  3 32  1  0  0  0  0
  3 75  1  0  0  0  0
  4 29  2  0  0  0  0
  5  9  1  0  0  0  0
  5 14  1  0  0  0  0
  5 19  1  0  0  0  0
  6 12  1  0  0  0  0
  6 15  1  0  0  0  0
  6 20  1  0  0  0  0
  7 11  1  0  0  0  0
  7 25  1  0  0  0  0
  7 27  1  0  0  0  0
  8 26  1  0  0  0  0
  8 29  1  0  0  0  0
  8 63  1  0  0  0  0
  9 10  1  0  0  0  0
  9 18  1  0  0  0  0
 10 11  1  0  0  0  0
 10 43  1  0  0  0  0
 11 13  1  0  0  0  0
 11 44  1  0  0  0  0
 12 13  1  0  0  0  0
 12 45  1  0  0  0  0
 13 46  1  0  0  0  0
 13 47  1  0  0  0  0
 14 15  2  0  0  0  0
 14 16  1  0  0  0  0
 15 17  1  0  0  0  0
 16 21  1  0  0  0  0
 16 22  2  0  0  0  0
 17 23  2  0  0  0  0
 17 24  1  0  0  0  0
 18 48  1  0  0  0  0
 18 49  1  0  0  0  0
 18 50  1  0  0  0  0
 19 21  1  0  0  0  0
 19 28  2  0  0  0  0
 20 24  1  0  0  0  0
 20 30  2  0  0  0  0
 21 31  2  0  0  0  0
 22 23  1  0  0  0  0
 22 26  1  0  0  0  0
 23 29  1  0  0  0  0
 24 33  2  0  0  0  0
 25 32  1  0  0  0  0
 25 51  1  0  0  0  0
 25 52  1  0  0  0  0
 26 53  1  0  0  0  0
 26 54  1  0  0  0  0
 27 55  1  0  0  0  0
 27 56  1  0  0  0  0
 27 57  1  0  0  0  0
 28 35  1  0  0  0  0
 28 58  1  0  0  0  0
 30 37  1  0  0  0  0
 30 59  1  0  0  0  0
 31 36  1  0  0  0  0
 31 60  1  0  0  0  0
 32 39  1  0  0  0  0
 32 61  1  0  0  0  0
 33 38  1  0  0  0  0
 33 62  1  0  0  0  0
 34 64  1  0  0  0  0
 34 65  1  0  0  0  0
 34 66  1  0  0  0  0
 35 36  2  0  0  0  0
 35 67  1  0  0  0  0
 36 68  1  0  0  0  0
 37 38  2  0  0  0  0
 37 69  1  0  0  0  0
 38 70  1  0  0  0  0
 39 40  1  0  0  0  0
 39 71  1  0  0  0  0
 39 72  1  0  0  0  0
 40 41  1  0  0  0  0
 40 73  1  0  0  0  0
 40 74  1  0  0  0  0
 41 42  1  0  0  0  0
 41 76  1  0  0  0  0
 41 77  1  0  0  0  0
 42 78  1  0  0  0  0
 42 79  1  0  0  0  0
 42 80  1  0  0  0  0
M  END
> <PUBCHEM_COMPOUND_CID>
44352929

> <PUBCHEM_CONFORMER_RMSD>
1

> <PUBCHEM_CONFORMER_DIVERSEORDER>
2
4
9
18
5
7
1
15
12
8
10
16
17
14
6
13
11
3

> <PUBCHEM_MMFF94_PARTIAL_CHARGES>
44
1 -0.56
10 0.28
11 0.27
12 0.54
14 -0.05
15 -0.05
16 -0.01
17 -0.01
19 -0.15
2 -0.56
20 -0.15
22 -0.14
23 0.09
25 0.27
26 0.44
27 0.27
28 -0.15
29 0.54
3 -0.68
30 -0.15
31 -0.15
32 0.28
33 -0.15
34 0.28
35 -0.15
36 -0.15
37 -0.15
38 -0.15
4 -0.57
5 -0.04
58 0.15
59 0.15
6 -0.04
60 0.15
62 0.15
63 0.37
67 0.15
68 0.15
69 0.15
7 -0.81
70 0.15
75 0.4
8 -0.73
9 0.54

> <PUBCHEM_EFFECTIVE_ROTOR_COUNT>
8.2

> <PUBCHEM_PHARMACOPHORE_FEATURES>
18
1 1 acceptor
1 2 acceptor
1 3 acceptor
1 3 donor
1 4 acceptor
1 42 hydrophobe
1 5 cation
1 6 cation
1 7 cation
1 8 donor
5 5 14 16 19 21 rings
5 6 15 17 20 24 rings
5 8 22 23 26 29 rings
6 1 9 10 11 12 13 rings
6 14 15 16 17 22 23 rings
6 19 21 28 31 35 36 rings
6 20 24 30 33 37 38 rings
7 1 5 6 9 12 14 15 rings

> <PUBCHEM_HEAVY_ATOM_COUNT>
42

> <PUBCHEM_ATOM_DEF_STEREO_COUNT>
4

> <PUBCHEM_ATOM_UDEF_STEREO_COUNT>
1

> <PUBCHEM_BOND_DEF_STEREO_COUNT>
0

> <PUBCHEM_BOND_UDEF_STEREO_COUNT>
0

> <PUBCHEM_ISOTOPIC_ATOM_COUNT>
0

> <PUBCHEM_COMPONENT_COUNT>
1

> <PUBCHEM_CACTVS_TAUTO_COUNT>
2

> <PUBCHEM_CONFORMER_ID>
02A4C5A100000002

> <PUBCHEM_MMFF94_ENERGY>
173.3811

> <PUBCHEM_FEATURE_SELFOVERLAP>
92.513

> <PUBCHEM_SHAPE_FINGERPRINT>
10190108 129 18120114998833539051
10675989 125 17762575824649965093
1100329 8 17840556255671960219
11285246 1 18195818585348021142
11513181 2 17700377417659812703
12156800 1 17774434963277028062
12422481 6 17465900966867956008
12608794 3 17615738228192761008
12788726 201 18049149257895012181
13140716 1 17624367015148702459
133893 2 17096349696765404251
14659021 117 18048897474222294060
14790565 3 17411314544002388809
19309040 13 17824847571336919357
20642791 178 18190738631406802879
20764821 26 18055325017387342211
20905425 154 17914587640200238283
22122407 14 15647872878290656332
484985 159 16914014402492560940
513532 50 17058336273016789505
57527306 92 14225670732376219373

> <PUBCHEM_SHAPE_MULTIPOLES>
820.94
9.55
5.4
3.99
7.24
4.03
-0.08
-8.25
12.42
-1.57
0.33
4.98
-0.62
-4.64

> <PUBCHEM_SHAPE_SELFOVERLAP>
1841.838

> <PUBCHEM_SHAPE_VOLUME>
432.9

> <PUBCHEM_COORDINATE_TYPE>
2
5
10

$$$$
