49830857
  -OEChem-10052115193D

 37 38  0     0  0  0  0  0  0999 V2000
    2.8925    1.8672    0.0064 O   0  0  0  0  0  0  0  0  0  0  0  0
   -1.1373   -2.2158    0.9486 O   0  0  0  0  0  0  0  0  0  0  0  0
   -1.3698    0.0789    1.1872 N   0  0  0  0  0  0  0  0  0  0  0  0
    1.1754    0.3828    0.4196 N   0  0  0  0  0  0  0  0  0  0  0  0
    3.6417   -2.8665   -0.6140 N   0  0  0  0  0  0  0  0  0  0  0  0
   -5.5138    0.3107   -1.6366 N   0  0  0  0  0  0  0  0  0  0  0  0
    5.7585    0.0349   -1.0358 N   0  0  0  0  0  0  0  0  0  0  0  0
   -2.7429    0.0625    1.6379 C   0  0  0  0  0  0  0  0  0  0  0  0
    0.7356   -0.8953    0.4520 C   0  0  0  0  0  0  0  0  0  0  0  0
   -3.7109    0.1493    0.4935 C   0  0  0  0  0  0  0  0  0  0  0  0
   -0.6448   -1.0758    0.8671 C   0  0  0  0  0  0  0  0  0  0  0  0
    2.8289   -1.7628   -0.2707 C   0  0  0  0  0  0  0  0  0  0  0  0
    1.5142   -1.9922    0.1199 C   0  0  0  0  0  0  0  0  0  0  0  0
    2.4584    0.5666    0.0352 C   0  0  0  0  0  0  0  0  0  0  0  0
    3.3178   -0.4618   -0.3165 C   0  0  0  0  0  0  0  0  0  0  0  0
   -3.9183    1.3616   -0.1551 C   0  0  0  0  0  0  0  0  0  0  0  0
   -4.4038   -0.9825    0.0782 C   0  0  0  0  0  0  0  0  0  0  0  0
    1.9496    2.8638    0.3816 C   0  0  0  0  0  0  0  0  0  0  0  0
   -4.8222    1.3892   -1.2050 C   0  0  0  0  0  0  0  0  0  0  0  0
   -5.2859   -0.8501   -0.9821 C   0  0  0  0  0  0  0  0  0  0  0  0
    2.6111    4.2230    0.3026 C   0  0  0  0  0  0  0  0  0  0  0  0
    4.6659   -0.1875   -0.7139 C   0  0  0  0  0  0  0  0  0  0  0  0
   -2.8815    0.9160    2.3113 H   0  0  0  0  0  0  0  0  0  0  0  0
   -2.9165   -0.8439    2.2293 H   0  0  0  0  0  0  0  0  0  0  0  0
   -0.9140    0.9825    1.0942 H   0  0  0  0  0  0  0  0  0  0  0  0
    1.1213   -3.0036    0.1592 H   0  0  0  0  0  0  0  0  0  0  0  0
   -3.3943    2.2633    0.1432 H   0  0  0  0  0  0  0  0  0  0  0  0
   -4.2662   -1.9446    0.5595 H   0  0  0  0  0  0  0  0  0  0  0  0
    1.0893    2.8462   -0.2985 H   0  0  0  0  0  0  0  0  0  0  0  0
    1.6078    2.6954    1.4101 H   0  0  0  0  0  0  0  0  0  0  0  0
    3.2601   -3.8025   -0.5719 H   0  0  0  0  0  0  0  0  0  0  0  0
    4.6013   -2.7343   -0.9021 H   0  0  0  0  0  0  0  0  0  0  0  0
   -5.0197    2.3100   -1.7437 H   0  0  0  0  0  0  0  0  0  0  0  0
   -5.8505   -1.7029   -1.3446 H   0  0  0  0  0  0  0  0  0  0  0  0
    1.9124    5.0155    0.5853 H   0  0  0  0  0  0  0  0  0  0  0  0
    2.9735    4.4172   -0.7124 H   0  0  0  0  0  0  0  0  0  0  0  0
    3.4821    4.2672    0.9649 H   0  0  0  0  0  0  0  0  0  0  0  0
  1 14  1  0  0  0  0
  1 18  1  0  0  0  0
  2 11  2  0  0  0  0
  3  8  1  0  0  0  0
  3 11  1  0  0  0  0
  3 25  1  0  0  0  0
  4  9  2  0  0  0  0
  4 14  1  0  0  0  0
  5 12  1  0  0  0  0
  5 31  1  0  0  0  0
  5 32  1  0  0  0  0
  6 19  2  0  0  0  0
  6 20  1  0  0  0  0
  7 22  3  0  0  0  0
  8 10  1  0  0  0  0
  8 23  1  0  0  0  0
  8 24  1  0  0  0  0
  9 11  1  0  0  0  0
  9 13  1  0  0  0  0
 10 16  2  0  0  0  0
 10 17  1  0  0  0  0
 12 13  2  0  0  0  0
 12 15  1  0  0  0  0
 13 26  1  0  0  0  0
 14 15  2  0  0  0  0
 15 22  1  0  0  0  0
 16 19  1  0  0  0  0
 16 27  1  0  0  0  0
 17 20  2  0  0  0  0
 17 28  1  0  0  0  0
 18 21  1  0  0  0  0
 18 29  1  0  0  0  0
 18 30  1  0  0  0  0
 19 33  1  0  0  0  0
 20 34  1  0  0  0  0
 21 35  1  0  0  0  0
 21 36  1  0  0  0  0
 21 37  1  0  0  0  0
M  END
> <PUBCHEM_COMPOUND_CID>
49830857

> <PUBCHEM_CONFORMER_RMSD>
0.8

> <PUBCHEM_CONFORMER_DIVERSEORDER>
1
41
15
19
42
3
7
30
13
21
4
39
27
5
20
10
24
43
32
34
12
14
8
33
11
45
29
25
35
2
46
38
6
16
40
17
22
26
31
23
18
36
28
44
9
37

> <PUBCHEM_MMFF94_PARTIAL_CHARGES>
29
1 -0.36
10 -0.14
11 0.54
12 0.1
13 -0.15
14 0.39
15 0.07
16 -0.15
17 -0.15
18 0.28
19 0.16
2 -0.57
20 0.16
22 0.48
25 0.37
26 0.15
27 0.15
28 0.15
3 -0.73
31 0.4
32 0.4
33 0.15
34 0.15
4 -0.62
5 -0.9
6 -0.62
7 -0.56
8 0.44
9 0.4

> <PUBCHEM_EFFECTIVE_ROTOR_COUNT>
6

> <PUBCHEM_PHARMACOPHORE_FEATURES>
10
1 1 acceptor
1 2 acceptor
1 3 donor
1 4 acceptor
1 5 cation
1 5 donor
1 6 acceptor
1 7 acceptor
6 4 9 12 13 14 15 rings
6 6 10 16 17 19 20 rings

> <PUBCHEM_HEAVY_ATOM_COUNT>
22

> <PUBCHEM_ATOM_DEF_STEREO_COUNT>
0

> <PUBCHEM_ATOM_UDEF_STEREO_COUNT>
0

> <PUBCHEM_BOND_DEF_STEREO_COUNT>
0

> <PUBCHEM_BOND_UDEF_STEREO_COUNT>
0

> <PUBCHEM_ISOTOPIC_ATOM_COUNT>
0

> <PUBCHEM_COMPONENT_COUNT>
1

> <PUBCHEM_CACTVS_TAUTO_COUNT>
4

> <PUBCHEM_CONFORMER_ID>
02F85BC900000001

> <PUBCHEM_MMFF94_ENERGY>
60.9398

> <PUBCHEM_FEATURE_SELFOVERLAP>
50.797

> <PUBCHEM_SHAPE_FINGERPRINT>
10366900 7 18113616776889522981
11796584 16 14260249544472765638
12403259 415 18186805824511779065
12670546 177 18341890792932508495
12769317 202 18334295370723158560
12892183 10 8718540653982500103
13134695 92 18338524032261275990
13402501 40 18186517713257065564
13583140 156 18334305291929476763
14252887 29 10735878382829579915
15003188 100 18335415828806529005
16994733 274 16082226271838354756
17349148 13 17275393079237155239
200 152 17989208118691304187
21033648 144 18266466579619899073
21033648 29 17821729472461501361
21521721 280 8574419929952464262
21709351 56 18413389860237016727
221357 26 18410007698552143325
22289505 5 18335420132532226884
22393880 68 18260819398354103335
23402539 116 17561092366768031931
23402655 69 18411139087121111431
23557571 272 17386297596596220427
23559900 14 18341893038709612328
26918003 58 10447929447495657819
341906 21 16370999741750137801
4280585 95 17121990093346634095
465052 167 12031791340859671492
5281201 14 18410294696798429903
5352402 22 10952048983421802173
5924683 9 8213558014630016633
7471813 234 17703792504996734240

> <PUBCHEM_SHAPE_MULTIPOLES>
416.11
12.23
3.24
1.19
7.72
3.04
0.01
0.49
6.03
-4.12
-0.23
1.2
-0.04
1.02

> <PUBCHEM_SHAPE_SELFOVERLAP>
883.144

> <PUBCHEM_SHAPE_VOLUME>
228.1

> <PUBCHEM_COORDINATE_TYPE>
2
5
10

$$$$
