18451374
  -OEChem-10062122003D

 45 48  0     0  0  0  0  0  0999 V2000
   -6.0142    2.0209    0.7787 S   0  0  0  0  0  0  0  0  0  0  0  0
    2.5993   -0.0590    1.2339 O   0  0  0  0  0  0  0  0  0  0  0  0
    1.7159    0.5066   -0.8611 N   0  0  0  0  0  0  0  0  0  0  0  0
   -5.7596   -2.3151   -0.3150 N   0  0  0  0  0  0  0  0  0  0  0  0
   -3.4315   -2.0531   -0.6314 N   0  0  0  0  0  0  0  0  0  0  0  0
    3.9937    0.2036   -0.6251 N   0  0  0  0  0  0  0  0  0  0  0  0
   -3.8078    0.8890    0.1436 C   0  0  0  0  0  0  0  0  0  0  0  0
   -4.8000   -0.1438    0.0552 C   0  0  0  0  0  0  0  0  0  0  0  0
   -2.3920    0.7909   -0.1140 C   0  0  0  0  0  0  0  0  0  0  0  0
   -6.0684    0.3446    0.3809 C   0  0  0  0  0  0  0  0  0  0  0  0
   -4.3306    2.1023    0.5233 C   0  0  0  0  0  0  0  0  0  0  0  0
   -1.5160    0.4632    0.9208 C   0  0  0  0  0  0  0  0  0  0  0  0
   -1.8989    1.0237   -1.3978 C   0  0  0  0  0  0  0  0  0  0  0  0
   -4.6822   -1.4988   -0.2927 C   0  0  0  0  0  0  0  0  0  0  0  0
    0.3465    0.6013   -0.6120 C   0  0  0  0  0  0  0  0  0  0  0  0
   -0.1468    0.3683    0.6717 C   0  0  0  0  0  0  0  0  0  0  0  0
   -0.5296    0.9291   -1.6469 C   0  0  0  0  0  0  0  0  0  0  0  0
   -7.1945   -0.4869    0.3631 C   0  0  0  0  0  0  0  0  0  0  0  0
   -6.9639   -1.8037    0.0058 C   0  0  0  0  0  0  0  0  0  0  0  0
    5.2770   -0.0572   -0.0892 C   0  0  0  0  0  0  0  0  0  0  0  0
    2.7588    0.1898    0.0432 C   0  0  0  0  0  0  0  0  0  0  0  0
    7.6670   -0.2529   -0.3827 C   0  0  0  0  0  0  0  0  0  0  0  0
    6.4022    0.0045   -0.9113 C   0  0  0  0  0  0  0  0  0  0  0  0
    5.4167   -0.3759    1.2616 C   0  0  0  0  0  0  0  0  0  0  0  0
    7.8067   -0.5718    0.9681 C   0  0  0  0  0  0  0  0  0  0  0  0
    6.6816   -0.6331    1.7903 C   0  0  0  0  0  0  0  0  0  0  0  0
    8.8706   -0.1864   -1.2610 C   0  0  0  0  0  0  0  0  0  0  0  0
   -3.8116    3.0410    0.6656 H   0  0  0  0  0  0  0  0  0  0  0  0
   -1.8855    0.2775    1.9268 H   0  0  0  0  0  0  0  0  0  0  0  0
   -2.5684    1.2788   -2.2160 H   0  0  0  0  0  0  0  0  0  0  0  0
    0.4643    0.1099    1.5245 H   0  0  0  0  0  0  0  0  0  0  0  0
   -0.1592    1.1127   -2.6523 H   0  0  0  0  0  0  0  0  0  0  0  0
   -8.1857   -0.1270    0.6123 H   0  0  0  0  0  0  0  0  0  0  0  0
    1.9992    0.6900   -1.8205 H   0  0  0  0  0  0  0  0  0  0  0  0
   -7.7857   -2.5123   -0.0320 H   0  0  0  0  0  0  0  0  0  0  0  0
    6.2943    0.2514   -1.9652 H   0  0  0  0  0  0  0  0  0  0  0  0
    3.9735    0.4283   -1.6166 H   0  0  0  0  0  0  0  0  0  0  0  0
   -2.5764   -1.5244   -0.6416 H   0  0  0  0  0  0  0  0  0  0  0  0
   -3.4013   -3.0350   -0.8743 H   0  0  0  0  0  0  0  0  0  0  0  0
    4.5969   -0.4439    1.9622 H   0  0  0  0  0  0  0  0  0  0  0  0
    8.7865   -0.7761    1.3917 H   0  0  0  0  0  0  0  0  0  0  0  0
    6.7917   -0.8820    2.8419 H   0  0  0  0  0  0  0  0  0  0  0  0
    9.0440   -1.1577   -1.7348 H   0  0  0  0  0  0  0  0  0  0  0  0
    8.7459    0.5697   -2.0436 H   0  0  0  0  0  0  0  0  0  0  0  0
    9.7637    0.0888   -0.6897 H   0  0  0  0  0  0  0  0  0  0  0  0
  1 10  1  0  0  0  0
  1 11  1  0  0  0  0
  2 21  2  0  0  0  0
  3 15  1  0  0  0  0
  3 21  1  0  0  0  0
  3 34  1  0  0  0  0
  4 14  2  0  0  0  0
  4 19  1  0  0  0  0
  5 14  1  0  0  0  0
  5 38  1  0  0  0  0
  5 39  1  0  0  0  0
  6 20  1  0  0  0  0
  6 21  1  0  0  0  0
  6 37  1  0  0  0  0
  7  8  1  0  0  0  0
  7  9  1  0  0  0  0
  7 11  2  0  0  0  0
  8 10  2  0  0  0  0
  8 14  1  0  0  0  0
  9 12  2  0  0  0  0
  9 13  1  0  0  0  0
 10 18  1  0  0  0  0
 11 28  1  0  0  0  0
 12 16  1  0  0  0  0
 12 29  1  0  0  0  0
 13 17  2  0  0  0  0
 13 30  1  0  0  0  0
 15 16  2  0  0  0  0
 15 17  1  0  0  0  0
 16 31  1  0  0  0  0
 17 32  1  0  0  0  0
 18 19  2  0  0  0  0
 18 33  1  0  0  0  0
 19 35  1  0  0  0  0
 20 23  1  0  0  0  0
 20 24  2  0  0  0  0
 22 23  2  0  0  0  0
 22 25  1  0  0  0  0
 22 27  1  0  0  0  0
 23 36  1  0  0  0  0
 24 26  1  0  0  0  0
 24 40  1  0  0  0  0
 25 26  2  0  0  0  0
 25 41  1  0  0  0  0
 26 42  1  0  0  0  0
 27 43  1  0  0  0  0
 27 44  1  0  0  0  0
 27 45  1  0  0  0  0
M  END
> <PUBCHEM_COMPOUND_CID>
18451374

> <PUBCHEM_CONFORMER_RMSD>
0.8

> <PUBCHEM_CONFORMER_DIVERSEORDER>
1
16
29
18
7
21
15
26
2
17
11
14
28
8
20
13
12
23
5
30
19
3
25
4
27
6
9
10
24
22

> <PUBCHEM_MMFF94_PARTIAL_CHARGES>
41
1 -0.08
10 0.04
11 -0.11
12 -0.15
13 -0.15
14 0.41
15 0.12
16 -0.15
17 -0.15
18 -0.15
19 0.16
2 -0.57
20 0.12
21 0.69
22 -0.14
23 -0.15
24 -0.15
25 -0.15
26 -0.15
27 0.14
28 0.15
29 0.15
3 -0.55
30 0.15
31 0.15
32 0.15
33 0.15
34 0.37
35 0.15
36 0.15
37 0.37
38 0.4
39 0.4
4 -0.62
40 0.15
41 0.15
42 0.15
5 -0.9
6 -0.55
7 -0.05
9 0.05

> <PUBCHEM_EFFECTIVE_ROTOR_COUNT>
5

> <PUBCHEM_PHARMACOPHORE_FEATURES>
9
1 2 acceptor
1 3 donor
1 5 donor
1 6 donor
3 4 5 14 cation
5 1 7 8 10 11 rings
6 20 22 23 24 25 26 rings
6 4 8 10 14 18 19 rings
6 9 12 13 15 16 17 rings

> <PUBCHEM_HEAVY_ATOM_COUNT>
27

> <PUBCHEM_ATOM_DEF_STEREO_COUNT>
0

> <PUBCHEM_ATOM_UDEF_STEREO_COUNT>
0

> <PUBCHEM_BOND_DEF_STEREO_COUNT>
0

> <PUBCHEM_BOND_UDEF_STEREO_COUNT>
0

> <PUBCHEM_ISOTOPIC_ATOM_COUNT>
0

> <PUBCHEM_COMPONENT_COUNT>
1

> <PUBCHEM_CACTVS_TAUTO_COUNT>
6

> <PUBCHEM_CONFORMER_ID>
01198BAE00000001

> <PUBCHEM_MMFF94_ENERGY>
88.7625

> <PUBCHEM_FEATURE_SELFOVERLAP>
45.785

> <PUBCHEM_SHAPE_FINGERPRINT>
10 15 17346593097703288440
10299344 5 18259987072088179922
10319926 262 18201993344029134017
10391435 84 15791738546384703504
11315181 36 18335422370484825681
11524674 6 17561080328059734335
12089408 11 18259706680012991992
12091667 2 17167865240577706077
12166972 35 18259985994163029036
12236239 1 18113902676125556213
12516196 113 18186237321403228572
13288520 33 18408603678343762789
13885169 127 18272937098159328192
13914758 101 9079118864892148180
14068700 675 18334014999327060428
14251764 18 17967254191673490280
14251764 46 18343585131744937941
14344974 204 17559388270075659311
14556957 393 15430325680635420742
14856354 85 18411983572486546103
15021287 119 17894919529248305701
15119646 104 17821725001564141874
15183329 4 17313100860977171474
15301273 46 17704073976142206988
15348495 7 17417238957218015930
15352257 5 18342458115157752158
15419008 47 17489583446566357152
15419008 91 17988063531540688360
15510794 2 17632582617164298414
15716309 27 17894630331719559504
1577012 14 17894911798280428648
15849732 13 17561362872910477876
17093844 174 17560796624479805785
19611394 137 17489306429406424835
20105231 36 17060345124105808582
20281389 69 14548734002458049106
21150785 3 14996281431467664190
21315759 40 18187086135573457784
21360443 120 17821729424937826010
21792961 116 16917073205524060936
22224240 67 18260829298348568914
23035841 295 18408040719046052355
23081809 10 17967257494181893004
23389318 12 17312823805806644966
23516275 137 18193013529539503954
23522609 53 17896628131558182508
23559900 14 18201716263294635801
23576562 1 14201971219497359583
3178227 256 16487257686018288154
3383291 50 18339926021557605411
397830 11 17702934971994693648
4325135 7 18261112971868623534
437795 51 17346324774175376046
44389302 135 18188479161694638426
4938544 92 18338514124125957637
5104073 3 16916237554479080258
5219985 9 17894349977735121236
54039377 194 17895201064987710803
57527293 21 17129022970003285159
58260988 114 16879090688512726443
5969126 39 16877936127324013221
6691757 9 18342181043239262793
9831232 110 18193275188233208486
9953998 17 17632580453323681051

> <PUBCHEM_SHAPE_MULTIPOLES>
533.7
26.53
1.67
1.31
35.47
0.38
-0.03
7.11
-2.25
-4.65
0.04
1.82
-0.12
-1.36

> <PUBCHEM_SHAPE_SELFOVERLAP>
1168.443

> <PUBCHEM_SHAPE_VOLUME>
290.4

> <PUBCHEM_COORDINATE_TYPE>
2
5
10

$$$$
