24905234
  -OEChem-10052115143D

 33 36  0     0  0  0  0  0  0999 V2000
    4.3035   -0.1303   -1.2828 O   0  0  0  0  0  0  0  0  0  0  0  0
    3.1376    0.0200    2.6246 O   0  0  0  0  0  0  0  0  0  0  0  0
   -2.9278    1.7049    0.1422 N   0  0  0  0  0  0  0  0  0  0  0  0
   -1.6153    1.8985   -0.0853 N   0  0  0  0  0  0  0  0  0  0  0  0
   -4.5197   -0.1051    0.3696 N   0  0  0  0  0  0  0  0  0  0  0  0
   -3.4519   -2.2831    0.1124 N   0  0  0  0  0  0  0  0  0  0  0  0
   -1.1160   -2.5326   -0.3099 N   0  0  0  0  0  0  0  0  0  0  0  0
   -1.1343    0.6566   -0.2093 C   0  0  0  0  0  0  0  0  0  0  0  0
   -2.1288   -0.3283   -0.0629 C   0  0  0  0  0  0  0  0  0  0  0  0
    0.2649    0.4551   -0.4646 C   0  0  0  0  0  0  0  0  0  0  0  0
   -3.2888    0.3906    0.1659 C   0  0  0  0  0  0  0  0  0  0  0  0
    1.1547    0.3193    0.6018 C   0  0  0  0  0  0  0  0  0  0  0  0
    2.5130    0.1225    0.3432 C   0  0  0  0  0  0  0  0  0  0  0  0
    0.7295    0.3946   -1.7798 C   0  0  0  0  0  0  0  0  0  0  0  0
   -2.2383   -1.7148   -0.0861 C   0  0  0  0  0  0  0  0  0  0  0  0
    2.9790    0.0616   -0.9720 C   0  0  0  0  0  0  0  0  0  0  0  0
    2.0868    0.1978   -2.0355 C   0  0  0  0  0  0  0  0  0  0  0  0
   -3.7931    2.8450    0.3315 C   0  0  0  0  0  0  0  0  0  0  0  0
    3.4759   -0.0244    1.4501 C   0  0  0  0  0  0  0  0  0  0  0  0
   -4.5022   -1.4547    0.3248 C   0  0  0  0  0  0  0  0  0  0  0  0
    4.8848   -0.2279    1.0614 C   0  0  0  0  0  0  0  0  0  0  0  0
    5.1862   -0.2652   -0.2391 C   0  0  0  0  0  0  0  0  0  0  0  0
    0.7897    0.3661    1.6252 H   0  0  0  0  0  0  0  0  0  0  0  0
    0.0446    0.4984   -2.6184 H   0  0  0  0  0  0  0  0  0  0  0  0
    2.4395    0.1517   -3.0621 H   0  0  0  0  0  0  0  0  0  0  0  0
   -3.4351    3.4061    1.1985 H   0  0  0  0  0  0  0  0  0  0  0  0
   -3.7479    3.4622   -0.5693 H   0  0  0  0  0  0  0  0  0  0  0  0
   -4.8194    2.5129    0.5025 H   0  0  0  0  0  0  0  0  0  0  0  0
   -5.4586   -1.9425    0.4798 H   0  0  0  0  0  0  0  0  0  0  0  0
    5.6355   -0.3417    1.8328 H   0  0  0  0  0  0  0  0  0  0  0  0
   -0.1990   -2.1380   -0.4596 H   0  0  0  0  0  0  0  0  0  0  0  0
   -1.2396   -3.5362   -0.3178 H   0  0  0  0  0  0  0  0  0  0  0  0
    6.1918   -0.4101   -0.6092 H   0  0  0  0  0  0  0  0  0  0  0  0
  1 16  1  0  0  0  0
  1 22  1  0  0  0  0
  2 19  2  0  0  0  0
  3  4  1  0  0  0  0
  3 11  1  0  0  0  0
  3 18  1  0  0  0  0
  4  8  2  0  0  0  0
  5 11  2  0  0  0  0
  5 20  1  0  0  0  0
  6 15  1  0  0  0  0
  6 20  2  0  0  0  0
  7 15  1  0  0  0  0
  7 31  1  0  0  0  0
  7 32  1  0  0  0  0
  8  9  1  0  0  0  0
  8 10  1  0  0  0  0
  9 11  1  0  0  0  0
  9 15  2  0  0  0  0
 10 12  2  0  0  0  0
 10 14  1  0  0  0  0
 12 13  1  0  0  0  0
 12 23  1  0  0  0  0
 13 16  2  0  0  0  0
 13 19  1  0  0  0  0
 14 17  2  0  0  0  0
 14 24  1  0  0  0  0
 16 17  1  0  0  0  0
 17 25  1  0  0  0  0
 18 26  1  0  0  0  0
 18 27  1  0  0  0  0
 18 28  1  0  0  0  0
 19 21  1  0  0  0  0
 20 29  1  0  0  0  0
 21 22  2  0  0  0  0
 21 30  1  0  0  0  0
 22 33  1  0  0  0  0
M  END
> <PUBCHEM_COMPOUND_CID>
24905234

> <PUBCHEM_CONFORMER_RMSD>
0.6

> <PUBCHEM_CONFORMER_DIVERSEORDER>
1
2

> <PUBCHEM_MMFF94_PARTIAL_CHARGES>
29
1 -0.16
10 0.05
11 0.11
12 -0.15
13 0.09
14 -0.15
15 0.41
16 0.08
17 -0.15
18 0.26
19 0.47
2 -0.57
20 0.47
21 -0.14
22 -0.07
23 0.15
24 0.15
25 0.15
29 0.15
3 0.31
30 0.15
31 0.4
32 0.4
33 0.15
4 -0.71
5 -0.57
6 -0.62
7 -0.9
8 0.23

> <PUBCHEM_EFFECTIVE_ROTOR_COUNT>
1

> <PUBCHEM_PHARMACOPHORE_FEATURES>
11
1 1 acceptor
1 2 acceptor
1 4 acceptor
1 7 cation
1 7 donor
3 3 5 11 cation
3 5 6 20 cation
5 3 4 8 9 11 rings
6 1 13 16 19 21 22 rings
6 10 12 13 14 16 17 rings
6 5 6 9 11 15 20 rings

> <PUBCHEM_HEAVY_ATOM_COUNT>
22

> <PUBCHEM_ATOM_DEF_STEREO_COUNT>
0

> <PUBCHEM_ATOM_UDEF_STEREO_COUNT>
0

> <PUBCHEM_BOND_DEF_STEREO_COUNT>
0

> <PUBCHEM_BOND_UDEF_STEREO_COUNT>
0

> <PUBCHEM_ISOTOPIC_ATOM_COUNT>
0

> <PUBCHEM_COMPONENT_COUNT>
1

> <PUBCHEM_CACTVS_TAUTO_COUNT>
5

> <PUBCHEM_CONFORMER_ID>
017C061200000001

> <PUBCHEM_MMFF94_ENERGY>
60.3165

> <PUBCHEM_FEATURE_SELFOVERLAP>
56.13

> <PUBCHEM_SHAPE_FINGERPRINT>
10319926 262 18270949156152392098
10366900 7 17704355463613397046
11370993 144 16988577779019204419
11545043 162 18201721730423707722
11582403 64 17339521974895115749
11725454 13 17558529345192892997
12107183 9 17829603959927659872
12236239 1 17749111097101264085
12403259 415 17704075079384591928
12500047 106 18342175518655850948
12553582 1 18336547234988097315
12596602 18 17967816101896659872
12633257 1 17988370368050426451
12788726 201 18190196731177373899
13140716 1 18195537106820115483
13167823 11 18040719173210808930
13583140 156 17917699180950199110
13675066 3 17775282768361875684
13760787 5 16153716405679120404
13862211 1 18338800143478585207
14178342 30 18337395937536467933
14294032 229 18190460460030680821
14386348 63 17703798023892130326
14420673 8 18049440345130448346
15042514 8 18267027331294363459
15375358 24 17704070659884252524
16752209 62 18409166623669972359
17349148 13 18261670458676580455
17804303 29 18341050808702823611
1813 80 17022905593285800726
18186145 218 14979954792049902572
18219364 16 16487248889751127588
19049666 15 17631185081961149093
200 152 16588021320643363268
20511986 3 17749378291380573340
20554085 129 18055055585520587665
20600515 1 18341340993710661460
20645477 70 15068334610295042944
21033648 144 14835822011772230552
21033648 29 17346304978069507320
21065201 7 18341337703754260030
212916 134 18268986493036237881
21792961 116 17418103075506805260
22112679 90 17967536769903200684
22646028 28 17749388186932287162
23402539 116 18342452656274710165
23557571 272 18202009802180482909
23559900 14 18128267696610301550
2838139 119 14979131155130457371
312423 11 17968391137640411788
34797466 226 18058186058417902524
474 4 16952550232157900164
5104073 3 18337962288940906161
5265222 85 18199762483004105798
573450 72 18260548909260131605
57724786 102 16343421821087781096
602551 16 18412828005843309426
77492 1 17749114395678416981
9849439 229 17691408508318830681
9862522 239 17678448659182158005

> <PUBCHEM_SHAPE_MULTIPOLES>
416.11
10.22
1.99
1.52
3.44
0.04
0.1
-0.9
2.25
-3.86
0.1
2.26
0.1
-0.3

> <PUBCHEM_SHAPE_SELFOVERLAP>
943.576

> <PUBCHEM_SHAPE_VOLUME>
216.3

> <PUBCHEM_COORDINATE_TYPE>
2
5
10

$$$$
