57401151
  -OEChem-10052115173D

 47 50  0     0  0  0  0  0  0999 V2000
   -7.5868   -3.6235    0.1364 Cl  0  0  0  0  0  0  0  0  0  0  0  0
   -2.6576    0.8280   -0.0213 O   0  0  0  0  0  0  0  0  0  0  0  0
    0.0582    3.0852   -0.1225 O   0  0  0  0  0  0  0  0  0  0  0  0
    5.5009   -0.5393   -0.0305 N   0  0  0  0  0  0  0  0  0  0  0  0
    8.2396   -1.3199    0.1671 N   0  0  0  0  0  0  0  0  0  0  0  0
    0.0645    0.7367   -0.0065 N   0  0  0  0  0  0  0  0  0  0  0  0
    6.3405   -0.0116    1.0533 C   0  0  0  0  0  0  0  0  0  0  0  0
    5.9486   -1.8041   -0.6234 C   0  0  0  0  0  0  0  0  0  0  0  0
    7.8105   -0.0031    0.6356 C   0  0  0  0  0  0  0  0  0  0  0  0
    7.4332   -1.7327   -0.9803 C   0  0  0  0  0  0  0  0  0  0  0  0
    4.1384   -0.2199   -0.0237 C   0  0  0  0  0  0  0  0  0  0  0  0
    3.1839   -1.2349    0.0413 C   0  0  0  0  0  0  0  0  0  0  0  0
    3.7349    1.1141   -0.0832 C   0  0  0  0  0  0  0  0  0  0  0  0
    1.4227    0.4179   -0.0121 C   0  0  0  0  0  0  0  0  0  0  0  0
    1.8260   -0.9161    0.0472 C   0  0  0  0  0  0  0  0  0  0  0  0
    2.3772    1.4331   -0.0773 C   0  0  0  0  0  0  0  0  0  0  0  0
   -0.5237    2.0076   -0.0601 C   0  0  0  0  0  0  0  0  0  0  0  0
   -2.0101    2.0220   -0.0667 C   0  0  0  0  0  0  0  0  0  0  0  0
   -3.9875    1.1065   -0.0379 C   0  0  0  0  0  0  0  0  0  0  0  0
   -4.8564   -0.0356    0.0043 C   0  0  0  0  0  0  0  0  0  0  0  0
   -2.9121    3.0596   -0.1122 C   0  0  0  0  0  0  0  0  0  0  0  0
   -4.1963    2.4650   -0.0933 C   0  0  0  0  0  0  0  0  0  0  0  0
   -6.2402    0.1402   -0.0087 C   0  0  0  0  0  0  0  0  0  0  0  0
   -4.3171   -1.3209    0.0578 C   0  0  0  0  0  0  0  0  0  0  0  0
   -7.0846   -0.9692    0.0321 C   0  0  0  0  0  0  0  0  0  0  0  0
   -5.1615   -2.4304    0.0987 C   0  0  0  0  0  0  0  0  0  0  0  0
   -6.5452   -2.2545    0.0858 C   0  0  0  0  0  0  0  0  0  0  0  0
    6.2055   -0.6335    1.9477 H   0  0  0  0  0  0  0  0  0  0  0  0
    6.0573    1.0115    1.3260 H   0  0  0  0  0  0  0  0  0  0  0  0
    5.3880   -2.0230   -1.5407 H   0  0  0  0  0  0  0  0  0  0  0  0
    5.7803   -2.6272    0.0830 H   0  0  0  0  0  0  0  0  0  0  0  0
    8.4266    0.2895    1.4928 H   0  0  0  0  0  0  0  0  0  0  0  0
    7.9764    0.7453   -0.1496 H   0  0  0  0  0  0  0  0  0  0  0  0
    7.5882   -1.0370   -1.8146 H   0  0  0  0  0  0  0  0  0  0  0  0
    7.7699   -2.7186   -1.3188 H   0  0  0  0  0  0  0  0  0  0  0  0
    9.2200   -1.2755   -0.1094 H   0  0  0  0  0  0  0  0  0  0  0  0
    3.4621   -2.2831    0.1026 H   0  0  0  0  0  0  0  0  0  0  0  0
    4.4641    1.9177   -0.1489 H   0  0  0  0  0  0  0  0  0  0  0  0
    1.0927   -1.7168    0.1013 H   0  0  0  0  0  0  0  0  0  0  0  0
    2.1453    2.4874   -0.1291 H   0  0  0  0  0  0  0  0  0  0  0  0
   -0.5704   -0.0579    0.0385 H   0  0  0  0  0  0  0  0  0  0  0  0
   -2.6787    4.1140   -0.1537 H   0  0  0  0  0  0  0  0  0  0  0  0
   -5.1469    2.9788   -0.1178 H   0  0  0  0  0  0  0  0  0  0  0  0
   -6.6908    1.1283   -0.0502 H   0  0  0  0  0  0  0  0  0  0  0  0
   -3.2448   -1.4991    0.0694 H   0  0  0  0  0  0  0  0  0  0  0  0
   -8.1609   -0.8175    0.0215 H   0  0  0  0  0  0  0  0  0  0  0  0
   -4.7277   -3.4263    0.1403 H   0  0  0  0  0  0  0  0  0  0  0  0
  1 27  1  0  0  0  0
  2 18  1  0  0  0  0
  2 19  1  0  0  0  0
  3 17  2  0  0  0  0
  4  7  1  0  0  0  0
  4  8  1  0  0  0  0
  4 11  1  0  0  0  0
  5  9  1  0  0  0  0
  5 10  1  0  0  0  0
  5 36  1  0  0  0  0
  6 14  1  0  0  0  0
  6 17  1  0  0  0  0
  6 41  1  0  0  0  0
  7  9  1  0  0  0  0
  7 28  1  0  0  0  0
  7 29  1  0  0  0  0
  8 10  1  0  0  0  0
  8 30  1  0  0  0  0
  8 31  1  0  0  0  0
  9 32  1  0  0  0  0
  9 33  1  0  0  0  0
 10 34  1  0  0  0  0
 10 35  1  0  0  0  0
 11 12  2  0  0  0  0
 11 13  1  0  0  0  0
 12 15  1  0  0  0  0
 12 37  1  0  0  0  0
 13 16  2  0  0  0  0
 13 38  1  0  0  0  0
 14 15  2  0  0  0  0
 14 16  1  0  0  0  0
 15 39  1  0  0  0  0
 16 40  1  0  0  0  0
 17 18  1  0  0  0  0
 18 21  2  0  0  0  0
 19 20  1  0  0  0  0
 19 22  2  0  0  0  0
 20 23  2  0  0  0  0
 20 24  1  0  0  0  0
 21 22  1  0  0  0  0
 21 42  1  0  0  0  0
 22 43  1  0  0  0  0
 23 25  1  0  0  0  0
 23 44  1  0  0  0  0
 24 26  2  0  0  0  0
 24 45  1  0  0  0  0
 25 27  2  0  0  0  0
 25 46  1  0  0  0  0
 26 27  1  0  0  0  0
 26 47  1  0  0  0  0
M  END
> <PUBCHEM_COMPOUND_CID>
57401151

> <PUBCHEM_CONFORMER_RMSD>
0.8

> <PUBCHEM_CONFORMER_DIVERSEORDER>
1
2
7
6
4
3
5
8

> <PUBCHEM_MMFF94_PARTIAL_CHARGES>
39
1 -0.18
10 0.27
11 0.1
12 -0.15
13 -0.15
14 0.12
15 -0.15
16 -0.15
17 0.71
18 0.05
19 0.09
2 -0.28
20 0.05
21 -0.15
22 -0.15
23 -0.15
24 -0.15
25 -0.15
26 -0.15
27 0.18
3 -0.57
36 0.36
37 0.15
38 0.15
39 0.15
4 -0.84
40 0.15
41 0.37
42 0.15
43 0.15
44 0.15
45 0.15
46 0.15
47 0.15
5 -0.9
6 -0.55
7 0.37
8 0.37
9 0.27

> <PUBCHEM_EFFECTIVE_ROTOR_COUNT>
6.2

> <PUBCHEM_PHARMACOPHORE_FEATURES>
10
1 2 acceptor
1 3 acceptor
1 4 cation
1 5 cation
1 5 donor
1 6 donor
5 2 18 19 21 22 rings
6 11 12 13 14 15 16 rings
6 20 23 24 25 26 27 rings
6 4 5 7 8 9 10 rings

> <PUBCHEM_HEAVY_ATOM_COUNT>
27

> <PUBCHEM_ATOM_DEF_STEREO_COUNT>
0

> <PUBCHEM_ATOM_UDEF_STEREO_COUNT>
0

> <PUBCHEM_BOND_DEF_STEREO_COUNT>
0

> <PUBCHEM_BOND_UDEF_STEREO_COUNT>
0

> <PUBCHEM_ISOTOPIC_ATOM_COUNT>
0

> <PUBCHEM_COMPONENT_COUNT>
1

> <PUBCHEM_CACTVS_TAUTO_COUNT>
2

> <PUBCHEM_CONFORMER_ID>
036BDF3F00000001

> <PUBCHEM_MMFF94_ENERGY>
72.6729

> <PUBCHEM_FEATURE_SELFOVERLAP>
50.749

> <PUBCHEM_SHAPE_FINGERPRINT>
10258705 36 18059023783104919718
10391435 84 18410844473723242017
10411042 1 18337954601793353941
10939801 23 18340201999117828746
11135609 99 18411701023536143398
11409948 8 18199459026347617200
11463208 1 18128549167272264862
11475781 23 10809338915408677394
11524674 6 16774076272017999199
117089 54 18045509870582293843
11761917 87 15984276106668389822
11963148 33 18336260138026465834
12166972 35 17749111114207618668
12643181 29 18409444774848177357
12645989 146 18268713977699397679
12760667 363 18341610435005737533
13248334 5 17905891736466674021
13631057 29 18409446977496539289
13692114 37 18114174234535173018
14068700 675 18260831514008875021
14178184 131 18059571446963428319
14420673 8 18409452527449120227
14461889 52 18341041961819566474
14556957 393 15575004913896935774
14931854 50 17822283609485124115
15064981 113 14346333715620434547
15152005 304 18194134125457491223
15183329 4 17240202127738357146
15352361 1 18410012182872286605
15419008 47 18060131042436154168
15419008 91 18264747953052896932
15461852 350 18337116683843930446
15728490 51 18411416233356045030
16992779 147 16198726142575701960
17780758 139 17917715678384041057
18335252 98 18273215297125589622
18608769 82 18342173371573389238
18681886 176 18408882928474926640
19301676 85 17977660141988466279
20028762 73 18410013234759979206
20281389 69 10159700187702750460
20982279 24 17533788367834766355
21054139 6 18113337488209272306
21130935 74 18270117908292908122
21223535 225 14562804401150792887
21267235 1 18410859858195966861
21344244 246 18042692873977390828
21623969 137 17417815011280194390
21781051 124 17917160433791820814
22002106 203 18127680733654003263
22149856 69 18202294584450654728
22864921 47 18189596312072506082
23424782 7 18342739616183178618
23522609 53 18121253988772583725
23559900 14 18338228401674491521
23569943 247 17762343514418022226
25025965 108 18200577143236785639
2747138 104 18343862208643801240
3004659 81 18040712602111397121
335352 9 18408880717104826533
3383291 50 18334294309724715435
3627633 1 18338517430618324885
397830 11 18272640277892509184
4073 2 18341334370912535176
439807 62 18408042931455311177
44426695 248 15553880138668406823
4461854 278 18060144283609980583
4516262 110 11743847924305698801
5104073 3 18200869583031939720
54039377 194 18335144219617707815
54583773 228 18334864970035391732
5718773 13 18410855512285175207
59682541 35 18130499817042098376
6138700 20 18408322216442241387
636775 8 18270973362735934310
6376802 90 17980765939327383765
9896288 288 18058454197046411465
9953998 17 18131352982246768233
9980921 7 11815905536056415619
999808 66 18273494563650359983

> <PUBCHEM_SHAPE_MULTIPOLES>
530.84
25.15
3.47
0.72
16.61
0.21
0.01
-22.16
1.02
-6.35
-0.22
0.72
-0.11
1.02

> <PUBCHEM_SHAPE_SELFOVERLAP>
1147.976

> <PUBCHEM_SHAPE_VOLUME>
291.8

> <PUBCHEM_COORDINATE_TYPE>
2
5
10

$$$$
