10022738
  -OEChem-10062121553D

 50 53  0     0  0  0  0  0  0999 V2000
    3.6904   -1.0892   -1.4631 S   0  0  0  0  0  0  0  0  0  0  0  0
   -4.4622   -0.4415    0.0468 N   0  0  0  0  0  0  0  0  0  0  0  0
   -6.5811   -2.3542    0.0692 N   0  0  0  0  0  0  0  0  0  0  0  0
    0.0003    2.9787   -0.1962 N   0  0  0  0  0  0  0  0  0  0  0  0
    1.7124    1.3772   -0.0912 N   0  0  0  0  0  0  0  0  0  0  0  0
    2.2176    3.7333   -0.0564 N   0  0  0  0  0  0  0  0  0  0  0  0
    3.8934   -2.4354    0.7344 N   0  0  0  0  0  0  0  0  0  0  0  0
    4.3283   -3.6616   -1.2397 N   0  0  0  0  0  0  0  0  0  0  0  0
   -5.0581   -0.8949   -1.2172 C   0  0  0  0  0  0  0  0  0  0  0  0
   -4.6173   -1.3525    1.1861 C   0  0  0  0  0  0  0  0  0  0  0  0
   -6.4984   -1.3550   -0.9951 C   0  0  0  0  0  0  0  0  0  0  0  0
   -6.0733   -1.7977    1.3219 C   0  0  0  0  0  0  0  0  0  0  0  0
   -3.3516    0.4077   -0.0162 C   0  0  0  0  0  0  0  0  0  0  0  0
   -3.4332    1.6632   -0.6509 C   0  0  0  0  0  0  0  0  0  0  0  0
   -2.1192    0.0344    0.5563 C   0  0  0  0  0  0  0  0  0  0  0  0
   -2.3273    2.5110   -0.7107 C   0  0  0  0  0  0  0  0  0  0  0  0
   -1.0132    0.8823    0.4967 C   0  0  0  0  0  0  0  0  0  0  0  0
   -1.1172    2.1208   -0.1368 C   0  0  0  0  0  0  0  0  0  0  0  0
    1.3358    2.6907   -0.1129 C   0  0  0  0  0  0  0  0  0  0  0  0
    3.0362    1.1301   -0.0090 C   0  0  0  0  0  0  0  0  0  0  0  0
    3.3883   -0.2647    0.0118 C   0  0  0  0  0  0  0  0  0  0  0  0
    3.5442   -1.1412    1.0678 C   0  0  0  0  0  0  0  0  0  0  0  0
    3.9983    2.1176    0.0519 C   0  0  0  0  0  0  0  0  0  0  0  0
    3.9982   -2.5237   -0.5730 C   0  0  0  0  0  0  0  0  0  0  0  0
    3.5259    3.4137    0.0245 C   0  0  0  0  0  0  0  0  0  0  0  0
    3.3732   -0.8201    2.5005 C   0  0  0  0  0  0  0  0  0  0  0  0
    4.6095   -4.9290   -0.5996 C   0  0  0  0  0  0  0  0  0  0  0  0
   -4.4564   -1.7182   -1.6234 H   0  0  0  0  0  0  0  0  0  0  0  0
   -5.0659   -0.0980   -1.9695 H   0  0  0  0  0  0  0  0  0  0  0  0
   -4.3229   -0.8583    2.1202 H   0  0  0  0  0  0  0  0  0  0  0  0
   -3.9744   -2.2315    1.0496 H   0  0  0  0  0  0  0  0  0  0  0  0
   -7.1367   -0.4962   -0.7518 H   0  0  0  0  0  0  0  0  0  0  0  0
   -6.8848   -1.7890   -1.9237 H   0  0  0  0  0  0  0  0  0  0  0  0
   -6.1455   -2.5580    2.1072 H   0  0  0  0  0  0  0  0  0  0  0  0
   -6.6992   -0.9525    1.6354 H   0  0  0  0  0  0  0  0  0  0  0  0
   -7.5542   -2.6320    0.1946 H   0  0  0  0  0  0  0  0  0  0  0  0
   -4.3699    1.9944   -1.0939 H   0  0  0  0  0  0  0  0  0  0  0  0
   -2.0014   -0.9220    1.0597 H   0  0  0  0  0  0  0  0  0  0  0  0
   -2.4218    3.4744   -1.2053 H   0  0  0  0  0  0  0  0  0  0  0  0
   -0.1215    0.5500    1.0152 H   0  0  0  0  0  0  0  0  0  0  0  0
   -0.2173    3.9545   -0.3659 H   0  0  0  0  0  0  0  0  0  0  0  0
    5.0580    1.9050    0.1187 H   0  0  0  0  0  0  0  0  0  0  0  0
    4.2070    4.2570    0.0685 H   0  0  0  0  0  0  0  0  0  0  0  0
    3.5228   -1.7066    3.1252 H   0  0  0  0  0  0  0  0  0  0  0  0
    4.0970   -0.0615    2.8149 H   0  0  0  0  0  0  0  0  0  0  0  0
    2.3649   -0.4401    2.6941 H   0  0  0  0  0  0  0  0  0  0  0  0
    4.3882   -3.6467   -2.2544 H   0  0  0  0  0  0  0  0  0  0  0  0
    3.7411   -5.2784   -0.0324 H   0  0  0  0  0  0  0  0  0  0  0  0
    5.4665   -4.8412    0.0756 H   0  0  0  0  0  0  0  0  0  0  0  0
    4.8478   -5.6822   -1.3567 H   0  0  0  0  0  0  0  0  0  0  0  0
  1 21  1  0  0  0  0
  1 24  1  0  0  0  0
  2  9  1  0  0  0  0
  2 10  1  0  0  0  0
  2 13  1  0  0  0  0
  3 11  1  0  0  0  0
  3 12  1  0  0  0  0
  3 36  1  0  0  0  0
  4 18  1  0  0  0  0
  4 19  1  0  0  0  0
  4 41  1  0  0  0  0
  5 19  1  0  0  0  0
  5 20  2  0  0  0  0
  6 19  2  0  0  0  0
  6 25  1  0  0  0  0
  7 22  1  0  0  0  0
  7 24  2  0  0  0  0
  8 24  1  0  0  0  0
  8 27  1  0  0  0  0
  8 47  1  0  0  0  0
  9 11  1  0  0  0  0
  9 28  1  0  0  0  0
  9 29  1  0  0  0  0
 10 12  1  0  0  0  0
 10 30  1  0  0  0  0
 10 31  1  0  0  0  0
 11 32  1  0  0  0  0
 11 33  1  0  0  0  0
 12 34  1  0  0  0  0
 12 35  1  0  0  0  0
 13 14  2  0  0  0  0
 13 15  1  0  0  0  0
 14 16  1  0  0  0  0
 14 37  1  0  0  0  0
 15 17  2  0  0  0  0
 15 38  1  0  0  0  0
 16 18  2  0  0  0  0
 16 39  1  0  0  0  0
 17 18  1  0  0  0  0
 17 40  1  0  0  0  0
 20 21  1  0  0  0  0
 20 23  1  0  0  0  0
 21 22  2  0  0  0  0
 22 26  1  0  0  0  0
 23 25  2  0  0  0  0
 23 42  1  0  0  0  0
 25 43  1  0  0  0  0
 26 44  1  0  0  0  0
 26 45  1  0  0  0  0
 26 46  1  0  0  0  0
 27 48  1  0  0  0  0
 27 49  1  0  0  0  0
 27 50  1  0  0  0  0
M  END
> <PUBCHEM_COMPOUND_CID>
10022738

> <PUBCHEM_CONFORMER_RMSD>
0.8

> <PUBCHEM_CONFORMER_DIVERSEORDER>
2
56
33
106
123
113
109
37
94
72
23
66
79
58
69
50
6
20
38
117
77
84
63
48
118
127
43
25
62
41
45
59
80
87
40
64
81
102
101
86
121
74
34
119
82
15
96
98
76
120
42
68
108
3
112
91
36
111
125
21
95
24
99
54
114
83
19
90
26
105
27
31
85
122
46
116
89
70
57
107
44
65
39
71
88
103
32
104
60
28
1
73
78
92
67
16
53
97
14
7
75
124
35
13
49
30
55
115
12
100
4
10
8
126
110
11
5
17
9
18
51
93
29
52
47
61
22

> <PUBCHEM_MMFF94_PARTIAL_CHARGES>
36
1 -0.08
10 0.37
11 0.27
12 0.27
13 0.1
14 -0.15
15 -0.15
16 -0.15
17 -0.15
18 0.1
19 0.72
2 -0.84
20 0.36
21 -0.01
22 0.05
23 -0.15
24 0.46
25 0.16
26 0.18
27 0.37
3 -0.9
36 0.36
37 0.15
38 0.15
39 0.15
4 -0.6
40 0.15
41 0.4
42 0.15
43 0.15
47 0.4
5 -0.62
6 -0.62
7 -0.57
8 -0.85
9 0.37

> <PUBCHEM_EFFECTIVE_ROTOR_COUNT>
6.2

> <PUBCHEM_PHARMACOPHORE_FEATURES>
12
1 2 cation
1 3 cation
1 3 donor
1 4 donor
1 5 acceptor
1 8 donor
3 7 8 24 cation
4 4 5 6 19 cation
5 1 7 21 22 24 rings
6 13 14 15 16 17 18 rings
6 2 3 9 10 11 12 rings
6 5 6 19 20 23 25 rings

> <PUBCHEM_HEAVY_ATOM_COUNT>
27

> <PUBCHEM_ATOM_DEF_STEREO_COUNT>
0

> <PUBCHEM_ATOM_UDEF_STEREO_COUNT>
0

> <PUBCHEM_BOND_DEF_STEREO_COUNT>
0

> <PUBCHEM_BOND_UDEF_STEREO_COUNT>
0

> <PUBCHEM_ISOTOPIC_ATOM_COUNT>
0

> <PUBCHEM_COMPONENT_COUNT>
1

> <PUBCHEM_CACTVS_TAUTO_COUNT>
9

> <PUBCHEM_CONFORMER_ID>
0098EF5200000002

> <PUBCHEM_MMFF94_ENERGY>
84.0609

> <PUBCHEM_FEATURE_SELFOVERLAP>
60.9

> <PUBCHEM_SHAPE_FINGERPRINT>
10319688 140 18411423934000441110
10429389 16 18115850959317177221
10928967 22 18042978579163955219
11409948 41 18199172075473032551
11421498 54 17846229881790304848
117089 54 18268719298668206814
11719270 70 18266734869759648288
12107183 9 18055933008578979561
12422481 6 17989211417621651303
12623949 98 18338808904488637439
13150687 139 17753913893770136108
13533116 47 18271247235261743649
1361 2 18339924938787431715
13911852 28 18412827976010380711
13955234 65 18200875209412950808
13989917 61 18266462190617828211
14251740 57 18342455937144674146
14429380 30 18265899051727758102
14556957 393 12758247555583190311
14848178 96 8502652597460437159
14863182 85 18265339593735709988
15003188 105 18040708165399761402
15392192 29 17839469886443519932
15467298 65 17841142570469921399
15483637 11 17688029034196157946
17492 89 18412544275639353941
17859628 70 18412266176908163252
17909252 39 18410018736549295088
19301679 30 18341905125702215641
19319366 153 17985263229806012660
1979834 28 18270109236316035952
20645477 70 18336263547633808825
20775438 99 18265325295098803371
21033650 10 15719656668469964877
21133410 32 16302660670705973410
21197605 99 18048038767914161466
21279426 13 18187072954777704037
21285901 2 17749940184930646477
21307412 95 17907575835348115509
22224240 67 18055629779609095872
23424784 1240 18409733945451766651
23559900 14 18266733589489972932
23569914 152 17907264713145714309
239999 70 17968935438993877704
25222932 49 18126286591110092903
314194 84 18269834392958746733
345986 75 17775010128418210977
34797466 226 16588305068401487789
44062 13 18192149300545882293
4461854 278 18270958059557052826
50009960 94 18042660893418685962
5104073 3 18412542111467097409
5309563 4 18268713813989201238
56633871 153 18053957151496605577
57359948 33 17531236297084834269
59755656 215 18114740572188712856
613672 6 18122321524678843076
7970288 3 18050849923105046262
9709674 26 18334859415508592880
9980921 52 17916563415963304703

> <PUBCHEM_SHAPE_MULTIPOLES>
524.63
15.07
5.25
1.36
20.54
1.69
0.49
15.05
-0.67
-7.88
-1.2
-0.38
0.88
1.6

> <PUBCHEM_SHAPE_SELFOVERLAP>
1114.385

> <PUBCHEM_SHAPE_VOLUME>
294.9

> <PUBCHEM_COORDINATE_TYPE>
2
5
10

$$$$
