49830307
  -OEChem-10052115183D

 48 51  0     1  0  0  0  0  0999 V2000
    4.0700   -4.3065   -0.2641 Cl  0  0  0  0  0  0  0  0  0  0  0  0
   -4.6384    1.9056   -1.6084 O   0  0  0  0  0  0  0  0  0  0  0  0
   -0.5854   -2.8804    0.3657 N   0  0  0  0  0  0  0  0  0  0  0  0
   -3.0845    0.7118   -0.3519 N   0  0  0  0  0  0  0  0  0  0  0  0
    0.9444   -1.1640    0.0432 N   0  0  0  0  0  0  0  0  0  0  0  0
    1.6384   -3.4717    0.0583 N   0  0  0  0  0  0  0  0  0  0  0  0
    3.4916    2.4605   -0.9481 N   0  0  0  0  0  0  0  0  0  0  0  0
    2.1683    4.1151    0.1987 N   0  0  0  0  0  0  0  0  0  0  0  0
   -1.6894   -1.9515    0.4868 C   0  0  1  0  0  0  0  0  0  0  0  0
   -3.3776   -0.6033   -0.8742 C   0  0  1  0  0  0  0  0  0  0  0  0
   -2.1225   -1.4827   -0.9074 C   0  0  0  0  0  0  0  0  0  0  0  0
   -2.8406   -2.6280    1.2325 C   0  0  0  0  0  0  0  0  0  0  0  0
   -4.5109   -1.2658   -0.0856 C   0  0  0  0  0  0  0  0  0  0  0  0
   -4.0699   -1.7269    1.3031 C   0  0  0  0  0  0  0  0  0  0  0  0
    0.7224   -2.4883    0.1454 C   0  0  0  0  0  0  0  0  0  0  0  0
   -3.7444    1.8546   -0.7678 C   0  0  0  0  0  0  0  0  0  0  0  0
   -3.2618    3.0841   -0.0458 C   0  0  0  0  0  0  0  0  0  0  0  0
    2.2309   -0.8170   -0.1691 C   0  0  0  0  0  0  0  0  0  0  0  0
    2.4875    0.5898   -0.2827 C   0  0  0  0  0  0  0  0  0  0  0  0
    2.9035   -3.0540   -0.1543 C   0  0  0  0  0  0  0  0  0  0  0  0
    3.2624   -1.7272   -0.2777 C   0  0  0  0  0  0  0  0  0  0  0  0
    1.8183    1.6906    0.3147 C   0  0  0  0  0  0  0  0  0  0  0  0
    3.5121    1.0941   -1.0544 C   0  0  0  0  0  0  0  0  0  0  0  0
    2.4686    2.8418   -0.1203 C   0  0  0  0  0  0  0  0  0  0  0  0
    0.7260    1.8541    1.1821 C   0  0  0  0  0  0  0  0  0  0  0  0
    0.3717    3.1523    1.5451 C   0  0  0  0  0  0  0  0  0  0  0  0
    1.1094    4.2127    1.0359 C   0  0  0  0  0  0  0  0  0  0  0  0
   -1.3802   -1.0877    1.0892 H   0  0  0  0  0  0  0  0  0  0  0  0
   -3.7218   -0.4671   -1.9073 H   0  0  0  0  0  0  0  0  0  0  0  0
   -1.3083   -0.9409   -1.4040 H   0  0  0  0  0  0  0  0  0  0  0  0
   -2.3292   -2.3623   -1.5330 H   0  0  0  0  0  0  0  0  0  0  0  0
   -2.5242   -2.8966    2.2480 H   0  0  0  0  0  0  0  0  0  0  0  0
   -3.1120   -3.5685    0.7346 H   0  0  0  0  0  0  0  0  0  0  0  0
   -4.8681   -2.1393   -0.6462 H   0  0  0  0  0  0  0  0  0  0  0  0
   -5.3643   -0.5842    0.0123 H   0  0  0  0  0  0  0  0  0  0  0  0
   -3.8498   -0.8545    1.9305 H   0  0  0  0  0  0  0  0  0  0  0  0
   -4.8920   -2.2658    1.7878 H   0  0  0  0  0  0  0  0  0  0  0  0
   -0.7673   -3.8771    0.3953 H   0  0  0  0  0  0  0  0  0  0  0  0
   -2.3975    0.7905    0.3923 H   0  0  0  0  0  0  0  0  0  0  0  0
   -3.2080    2.8991    1.0308 H   0  0  0  0  0  0  0  0  0  0  0  0
   -2.2717    3.3587   -0.4196 H   0  0  0  0  0  0  0  0  0  0  0  0
   -3.9545    3.9112   -0.2242 H   0  0  0  0  0  0  0  0  0  0  0  0
    4.2961   -1.4427   -0.4347 H   0  0  0  0  0  0  0  0  0  0  0  0
    4.2559    0.6200   -1.6807 H   0  0  0  0  0  0  0  0  0  0  0  0
    4.1310    3.0913   -1.4113 H   0  0  0  0  0  0  0  0  0  0  0  0
    0.1672    1.0084    1.5687 H   0  0  0  0  0  0  0  0  0  0  0  0
   -0.4650    3.3294    2.2123 H   0  0  0  0  0  0  0  0  0  0  0  0
    0.8466    5.2316    1.3082 H   0  0  0  0  0  0  0  0  0  0  0  0
  1 20  1  0  0  0  0
  2 16  2  0  0  0  0
  3  9  1  0  0  0  0
  3 15  1  0  0  0  0
  3 38  1  0  0  0  0
  4 10  1  0  0  0  0
  4 16  1  0  0  0  0
  4 39  1  0  0  0  0
  5 15  2  0  0  0  0
  5 18  1  0  0  0  0
  6 15  1  0  0  0  0
  6 20  2  0  0  0  0
  7 23  1  0  0  0  0
  7 24  1  0  0  0  0
  7 45  1  0  0  0  0
  8 24  1  0  0  0  0
  8 27  2  0  0  0  0
  9 11  1  0  0  0  0
  9 12  1  0  0  0  0
  9 28  1  0  0  0  0
 10 11  1  0  0  0  0
 10 13  1  0  0  0  0
 10 29  1  0  0  0  0
 11 30  1  0  0  0  0
 11 31  1  0  0  0  0
 12 14  1  0  0  0  0
 12 32  1  0  0  0  0
 12 33  1  0  0  0  0
 13 14  1  0  0  0  0
 13 34  1  0  0  0  0
 13 35  1  0  0  0  0
 14 36  1  0  0  0  0
 14 37  1  0  0  0  0
 16 17  1  0  0  0  0
 17 40  1  0  0  0  0
 17 41  1  0  0  0  0
 17 42  1  0  0  0  0
 18 19  1  0  0  0  0
 18 21  2  0  0  0  0
 19 22  1  0  0  0  0
 19 23  2  0  0  0  0
 20 21  1  0  0  0  0
 21 43  1  0  0  0  0
 22 24  2  0  0  0  0
 22 25  1  0  0  0  0
 23 44  1  0  0  0  0
 25 26  2  0  0  0  0
 25 46  1  0  0  0  0
 26 27  1  0  0  0  0
 26 47  1  0  0  0  0
 27 48  1  0  0  0  0
M  END
> <PUBCHEM_COMPOUND_CID>
49830307

> <PUBCHEM_CONFORMER_RMSD>
1

> <PUBCHEM_CONFORMER_DIVERSEORDER>
1
55
219
128
193
190
66
260
202
52
212
136
65
214
82
78
148
217
85
233
194
259
132
9
120
265
223
133
240
152
15
67
231
103
106
198
178
69
227
147
13
115
256
271
83
208
229
258
119
146
246
38
29
70
230
157
158
37
89
24
169
68
261
54
168
171
248
64
135
118
141
7
140
61
40
117
59
116
162
137
166
222
234
179
5
144
104
195
129
273
76
215
205
36
39
122
267
170
268
191
63
159
150
184
43
110
74
239
206
80
56
139
58
186
201
237
32
235
189
247
114
14
101
73
220
124
126
216
100
60
88
2
204
10
207
238
172
134
102
161
31
176
6
96
255
145
94
252
77
164
156
149
175
49
125
253
187
99
272
270
111
241
113
71
200
19
127
236
121
263
8
251
243
165
3
266
97
254
196
155
225
143
180
72
30
57
46
213
244
242
177
221
226
84
249
250
209
12
174
224
203
109
218
167
75
62
131
232
18
199
107
142
47
123
264
228
112
86
173
27
105
192
245
95
108
45
151
153
154
185
262
90
257
211
22
79
50
92
33
16
93
182
44
188
53
163
26
183
81
23
34
210
42
20
21
130
48
25
35
11
91
138
181
98
269
160
17
87
197
28
41
4
51

> <PUBCHEM_MMFF94_PARTIAL_CHARGES>
30
1 -0.18
10 0.3
15 0.72
16 0.57
17 0.06
18 0.36
19 -0.05
2 -0.57
20 0.49
21 -0.15
23 -0.3
24 0.11
25 -0.15
26 -0.15
27 0.16
3 -0.87
38 0.4
39 0.37
4 -0.73
43 0.15
44 0.15
45 0.27
46 0.15
47 0.15
48 0.15
5 -0.62
6 -0.62
7 0.03
8 -0.57
9 0.37

> <PUBCHEM_EFFECTIVE_ROTOR_COUNT>
6.2

> <PUBCHEM_PHARMACOPHORE_FEATURES>
12
1 2 acceptor
1 3 donor
1 4 donor
1 6 acceptor
1 7 cation
1 7 donor
1 8 acceptor
4 3 5 6 15 cation
5 7 19 22 23 24 rings
6 5 6 15 18 20 21 rings
6 8 22 24 25 26 27 rings
6 9 10 11 12 13 14 rings

> <PUBCHEM_HEAVY_ATOM_COUNT>
27

> <PUBCHEM_ATOM_DEF_STEREO_COUNT>
0

> <PUBCHEM_ATOM_UDEF_STEREO_COUNT>
2

> <PUBCHEM_BOND_DEF_STEREO_COUNT>
0

> <PUBCHEM_BOND_UDEF_STEREO_COUNT>
0

> <PUBCHEM_ISOTOPIC_ATOM_COUNT>
0

> <PUBCHEM_COMPONENT_COUNT>
1

> <PUBCHEM_CACTVS_TAUTO_COUNT>
32

> <PUBCHEM_CONFORMER_ID>
02F859A300000001

> <PUBCHEM_MMFF94_ENERGY>
54.0377

> <PUBCHEM_FEATURE_SELFOVERLAP>
61.009

> <PUBCHEM_SHAPE_FINGERPRINT>
10165383 225 17903373828382317878
10366900 7 18265334095944871231
10498660 4 17904188579673474119
10871710 139 17187569343397796737
1100329 8 18122348969229870129
11513181 2 16689624695201952687
12293681 4 17978513031433143711
12769317 202 18196656408966458610
12788726 201 17617372883871055386
13122387 1 18411136901109657125
13402501 40 17979077407431420657
1361 2 15167979638042752280
138480 1 18411984637454117778
140371 6 17978515234941303294
14114211 68 17973191644066963708
14114211 80 17473295508823922993
14466204 15 18339071709654027304
14866123 147 16752687158559112058
14931854 50 17905320733031568917
15322687 12 18118956997913747197
17138139 8 16612464297389987788
17921350 177 18131355223554812228
19930381 70 18122902290367871123
20567600 299 18341320150238706526
20775438 99 17694453326956966895
221357 26 18341619260440870487
23536364 44 18197245623040372156
23559900 14 18337942407853673431
238 59 18126827499322979855
3187 122 15316020903131143410
3524813 1 18122912198324504065
437795 70 16833765184439870175
463206 1 18123757443614975984
6700243 42 15600096165087079332
7808743 9 17038388155650489532

> <PUBCHEM_SHAPE_MULTIPOLES>
521.76
8.46
6.54
1.18
6.02
1.99
-0.1
-2.4
2.31
-4.78
-1.38
0.75
0.47
1.31

> <PUBCHEM_SHAPE_SELFOVERLAP>
1125.111

> <PUBCHEM_SHAPE_VOLUME>
287.2

> <PUBCHEM_COORDINATE_TYPE>
2
5
10

$$$$
