49830818
  -OEChem-10062121553D

 54 57  0     0  0  0  0  0  0999 V2000
   -6.1884   -0.6093    1.4244 S   0  0  0  0  0  0  0  0  0  0  0  0
   -5.2290   -1.0400    2.4334 O   0  0  0  0  0  0  0  0  0  0  0  0
   -7.5094   -0.1599    1.8428 O   0  0  0  0  0  0  0  0  0  0  0  0
   -1.5444    2.9788   -0.7397 O   0  0  0  0  0  0  0  0  0  0  0  0
    8.1983   -0.7233   -1.1589 O   0  0  0  0  0  0  0  0  0  0  0  0
   -6.3765   -1.8629    0.2784 N   0  0  0  0  0  0  0  0  0  0  0  0
   -1.3299    0.6689   -0.3552 N   0  0  0  0  0  0  0  0  0  0  0  0
    4.7303   -0.4801   -1.8562 N   0  0  0  0  0  0  0  0  0  0  0  0
    6.0627   -0.6660   -1.9907 N   0  0  0  0  0  0  0  0  0  0  0  0
   -4.3042   -4.4224   -1.4702 N   0  0  0  0  0  0  0  0  0  0  0  0
   -5.4680    0.6651    0.4726 C   0  0  0  0  0  0  0  0  0  0  0  0
    5.0984   -0.0910    0.5286 C   0  0  0  0  0  0  0  0  0  0  0  0
    4.2553   -0.1957   -0.6826 C   0  0  0  0  0  0  0  0  0  0  0  0
    2.7985    0.0291   -0.5963 C   0  0  0  0  0  0  0  0  0  0  0  0
    6.4699   -0.2689    0.3617 C   0  0  0  0  0  0  0  0  0  0  0  0
   -3.5053    1.7761   -0.3935 C   0  0  0  0  0  0  0  0  0  0  0  0
   -4.0803    0.7578    0.3669 C   0  0  0  0  0  0  0  0  0  0  0  0
   -5.1985   -2.4078   -0.4117 C   0  0  0  0  0  0  0  0  0  0  0  0
    0.0465    0.4560   -0.4347 C   0  0  0  0  0  0  0  0  0  0  0  0
   -6.2808    1.5903   -0.1823 C   0  0  0  0  0  0  0  0  0  0  0  0
    2.2800    1.3118   -0.7747 C   0  0  0  0  0  0  0  0  0  0  0  0
    1.9409   -1.0400   -0.3374 C   0  0  0  0  0  0  0  0  0  0  0  0
    4.5828    0.1509    1.8062 C   0  0  0  0  0  0  0  0  0  0  0  0
   -2.0265    1.8755   -0.5065 C   0  0  0  0  0  0  0  0  0  0  0  0
    0.9041    1.5252   -0.6939 C   0  0  0  0  0  0  0  0  0  0  0  0
    0.5649   -0.8267   -0.2565 C   0  0  0  0  0  0  0  0  0  0  0  0
   -4.3180    2.7015   -1.0483 C   0  0  0  0  0  0  0  0  0  0  0  0
   -5.7057    2.6086   -0.9426 C   0  0  0  0  0  0  0  0  0  0  0  0
   -5.4619   -3.8589   -0.7872 C   0  0  0  0  0  0  0  0  0  0  0  0
    6.9940   -0.5676   -0.9805 C   0  0  0  0  0  0  0  0  0  0  0  0
    7.3353   -0.1835    1.4571 C   0  0  0  0  0  0  0  0  0  0  0  0
    5.4459    0.2356    2.9008 C   0  0  0  0  0  0  0  0  0  0  0  0
    6.8191    0.0726    2.7264 C   0  0  0  0  0  0  0  0  0  0  0  0
   -3.4678    0.0490    0.9150 H   0  0  0  0  0  0  0  0  0  0  0  0
   -7.2618   -1.9100   -0.2416 H   0  0  0  0  0  0  0  0  0  0  0  0
   -4.3171   -2.3504    0.2360 H   0  0  0  0  0  0  0  0  0  0  0  0
   -5.0104   -1.8106   -1.3109 H   0  0  0  0  0  0  0  0  0  0  0  0
   -7.3638    1.5331   -0.1206 H   0  0  0  0  0  0  0  0  0  0  0  0
    2.9404    2.1512   -0.9770 H   0  0  0  0  0  0  0  0  0  0  0  0
    2.3343   -2.0435   -0.1970 H   0  0  0  0  0  0  0  0  0  0  0  0
    3.5191    0.2835    1.9788 H   0  0  0  0  0  0  0  0  0  0  0  0
    0.5807    2.5456   -0.8432 H   0  0  0  0  0  0  0  0  0  0  0  0
   -0.0913   -1.6693   -0.0540 H   0  0  0  0  0  0  0  0  0  0  0  0
   -3.8908    3.4991   -1.6504 H   0  0  0  0  0  0  0  0  0  0  0  0
   -1.8669   -0.1814   -0.2123 H   0  0  0  0  0  0  0  0  0  0  0  0
   -5.6734   -4.4492    0.1114 H   0  0  0  0  0  0  0  0  0  0  0  0
   -6.3413   -3.9311   -1.4374 H   0  0  0  0  0  0  0  0  0  0  0  0
   -6.3387    3.3273   -1.4549 H   0  0  0  0  0  0  0  0  0  0  0  0
    8.4073   -0.3179    1.3429 H   0  0  0  0  0  0  0  0  0  0  0  0
    5.0452    0.4293    3.8918 H   0  0  0  0  0  0  0  0  0  0  0  0
    6.3609   -0.8794   -2.9372 H   0  0  0  0  0  0  0  0  0  0  0  0
    7.4864    0.1390    3.5808 H   0  0  0  0  0  0  0  0  0  0  0  0
   -4.5143   -5.3765   -1.7606 H   0  0  0  0  0  0  0  0  0  0  0  0
   -4.1199   -3.8978   -2.3244 H   0  0  0  0  0  0  0  0  0  0  0  0
  1  2  2  0  0  0  0
  1  3  2  0  0  0  0
  1  6  1  0  0  0  0
  1 11  1  0  0  0  0
  4 24  2  0  0  0  0
  5 30  2  0  0  0  0
  6 18  1  0  0  0  0
  6 35  1  0  0  0  0
  7 19  1  0  0  0  0
  7 24  1  0  0  0  0
  7 45  1  0  0  0  0
  8  9  1  0  0  0  0
  8 13  2  0  0  0  0
  9 30  1  0  0  0  0
  9 51  1  0  0  0  0
 10 29  1  0  0  0  0
 10 53  1  0  0  0  0
 10 54  1  0  0  0  0
 11 17  1  0  0  0  0
 11 20  2  0  0  0  0
 12 13  1  0  0  0  0
 12 15  1  0  0  0  0
 12 23  2  0  0  0  0
 13 14  1  0  0  0  0
 14 21  2  0  0  0  0
 14 22  1  0  0  0  0
 15 30  1  0  0  0  0
 15 31  2  0  0  0  0
 16 17  2  0  0  0  0
 16 24  1  0  0  0  0
 16 27  1  0  0  0  0
 17 34  1  0  0  0  0
 18 29  1  0  0  0  0
 18 36  1  0  0  0  0
 18 37  1  0  0  0  0
 19 25  2  0  0  0  0
 19 26  1  0  0  0  0
 20 28  1  0  0  0  0
 20 38  1  0  0  0  0
 21 25  1  0  0  0  0
 21 39  1  0  0  0  0
 22 26  2  0  0  0  0
 22 40  1  0  0  0  0
 23 32  1  0  0  0  0
 23 41  1  0  0  0  0
 25 42  1  0  0  0  0
 26 43  1  0  0  0  0
 27 28  2  0  0  0  0
 27 44  1  0  0  0  0
 28 48  1  0  0  0  0
 29 46  1  0  0  0  0
 29 47  1  0  0  0  0
 31 33  1  0  0  0  0
 31 49  1  0  0  0  0
 32 33  2  0  0  0  0
 32 50  1  0  0  0  0
 33 52  1  0  0  0  0
M  END
> <PUBCHEM_COMPOUND_CID>
49830818

> <PUBCHEM_CONFORMER_RMSD>
1

> <PUBCHEM_CONFORMER_DIVERSEORDER>
1
47
39
20
21
17
34
31
12
29
45
37
3
11
46
44
48
32
38
13
15
40
27
14
9
19
5
22
16
7
2
28
30
35
23
42
33
41
43
4
24
10
36
18
8
6
26
25

> <PUBCHEM_MMFF94_PARTIAL_CHARGES>
50
1 1.45
10 -0.99
11 -0.01
12 0.09
13 0.28
14 0.09
15 0.09
16 0.09
17 -0.15
18 0.36
19 0.12
2 -0.65
20 -0.15
21 -0.15
22 -0.15
23 -0.15
24 0.54
25 -0.15
26 -0.15
27 -0.15
28 -0.15
29 0.27
3 -0.65
30 0.54
31 -0.15
32 -0.15
33 -0.15
34 0.15
35 0.42
38 0.15
39 0.15
4 -0.57
40 0.15
41 0.15
42 0.15
43 0.15
44 0.15
45 0.37
48 0.15
49 0.15
5 -0.57
50 0.15
51 0.37
52 0.15
53 0.36
54 0.36
6 -0.91
7 -0.55
8 -0.51
9 -0.37

> <PUBCHEM_EFFECTIVE_ROTOR_COUNT>
8

> <PUBCHEM_PHARMACOPHORE_FEATURES>
14
1 10 cation
1 10 donor
1 2 acceptor
1 3 acceptor
1 4 acceptor
1 5 acceptor
1 6 donor
1 7 donor
1 8 acceptor
1 9 donor
6 11 16 17 20 27 28 rings
6 12 15 23 31 32 33 rings
6 14 19 21 22 25 26 rings
6 8 9 12 13 15 30 rings

> <PUBCHEM_HEAVY_ATOM_COUNT>
33

> <PUBCHEM_ATOM_DEF_STEREO_COUNT>
0

> <PUBCHEM_ATOM_UDEF_STEREO_COUNT>
0

> <PUBCHEM_BOND_DEF_STEREO_COUNT>
0

> <PUBCHEM_BOND_UDEF_STEREO_COUNT>
0

> <PUBCHEM_ISOTOPIC_ATOM_COUNT>
0

> <PUBCHEM_COMPONENT_COUNT>
1

> <PUBCHEM_CACTVS_TAUTO_COUNT>
6

> <PUBCHEM_CONFORMER_ID>
02F85BA200000001

> <PUBCHEM_MMFF94_ENERGY>
89.9938

> <PUBCHEM_FEATURE_SELFOVERLAP>
71.092

> <PUBCHEM_SHAPE_FINGERPRINT>
10 15 18409726270804430488
10299344 5 16805327669328552944
11456790 92 16845289385982589114
11646440 116 18060417998002305952
11719270 70 18041558023368583314
11963148 33 18334290933980646798
12082328 90 14923948929922569669
12106331 60 18113341916157238587
12236239 1 17095526146057027316
12730499 353 17775281617964696990
13533116 47 15791734054165442108
13782708 43 18412542145377753808
14251764 18 17022907839458536360
15183329 4 15863789504017423953
15320294 125 18259991496416854607
15419008 47 18201434744994453264
1577012 14 17023188188964099660
16989713 51 18410290341907652127
18608769 82 18342177765435508270
19611394 137 18131630105767512888
19841028 212 18046066227881890427
22864921 47 17968364693943631946
23081809 10 17022907826299594292
23522609 53 16734980855191126076
23569914 152 12761031402046960522
2747138 104 18272932700582816088
397830 11 18059567057337240728
4015057 19 14996580493940469853
4073 2 17131254845057314630
439807 62 16950291715299959969
45377200 153 18336555949846298494
4918590 53 16917342658396797335
49967989 163 17459210575825513138
5080951 261 18041825252439972429
5104073 3 18197216936463431833
5937810 71 10519700150476774762
9953998 17 18060421322591277299

> <PUBCHEM_SHAPE_MULTIPOLES>
634.59
25.26
3.12
2.09
12.31
2.42
-1.41
6.98
-6.71
-9.94
1.86
2.99
0.5
0.74

> <PUBCHEM_SHAPE_SELFOVERLAP>
1372.398

> <PUBCHEM_SHAPE_VOLUME>
346.9

> <PUBCHEM_COORDINATE_TYPE>
2
5
10

$$$$
