16665630
  -OEChem-10062121543D

 44 47  0     1  0  0  0  0  0999 V2000
    0.2378    1.5394    0.9462 F   0  0  0  0  0  0  0  0  0  0  0  0
   -5.7703    2.5478   -0.1226 O   0  0  0  0  0  0  0  0  0  0  0  0
    6.6600   -0.2355    1.0835 N   0  0  0  0  0  0  0  0  0  0  0  0
   -1.8136   -1.8207    0.0591 N   0  0  0  0  0  0  0  0  0  0  0  0
   -2.0162    0.3874   -0.0949 N   0  0  0  0  0  0  0  0  0  0  0  0
   -3.4864    2.7291   -0.2210 N   0  0  0  0  0  0  0  0  0  0  0  0
    4.5718   -0.3665   -0.2502 C   0  0  1  0  0  0  0  0  0  0  0  0
    5.0488    0.8053   -1.1240 C   0  0  0  0  0  0  0  0  0  0  0  0
    5.1974   -0.2860    1.1546 C   0  0  0  0  0  0  0  0  0  0  0  0
    6.5733    0.8893   -1.1155 C   0  0  0  0  0  0  0  0  0  0  0  0
    7.1188    0.9187    0.3104 C   0  0  0  0  0  0  0  0  0  0  0  0
    3.0573   -0.4491   -0.1953 C   0  0  0  0  0  0  0  0  0  0  0  0
    2.3221    0.5995    0.3577 C   0  0  0  0  0  0  0  0  0  0  0  0
    2.4006   -1.5728   -0.6970 C   0  0  0  0  0  0  0  0  0  0  0  0
    0.2735   -0.5994   -0.0928 C   0  0  0  0  0  0  0  0  0  0  0  0
    0.9303    0.5242    0.4089 C   0  0  0  0  0  0  0  0  0  0  0  0
    1.0088   -1.6480   -0.6458 C   0  0  0  0  0  0  0  0  0  0  0  0
   -1.1657   -0.6817   -0.0428 C   0  0  0  0  0  0  0  0  0  0  0  0
   -3.1451   -1.4739    0.0740 C   0  0  0  0  0  0  0  0  0  0  0  0
   -3.2982   -0.0936   -0.0216 C   0  0  0  0  0  0  0  0  0  0  0  0
   -4.5409    0.5410   -0.0305 C   0  0  0  0  0  0  0  0  0  0  0  0
   -4.2886   -2.2851    0.1675 C   0  0  0  0  0  0  0  0  0  0  0  0
   -5.6684   -0.2817    0.0630 C   0  0  0  0  0  0  0  0  0  0  0  0
   -5.5468   -1.6698    0.1606 C   0  0  0  0  0  0  0  0  0  0  0  0
   -4.6601    1.9821   -0.1315 C   0  0  0  0  0  0  0  0  0  0  0  0
    4.9432   -1.2899   -0.7192 H   0  0  0  0  0  0  0  0  0  0  0  0
    4.6427    1.7571   -0.7598 H   0  0  0  0  0  0  0  0  0  0  0  0
    4.6905    0.6846   -2.1536 H   0  0  0  0  0  0  0  0  0  0  0  0
    4.8343    0.5871    1.7107 H   0  0  0  0  0  0  0  0  0  0  0  0
    4.9070   -1.1651    1.7424 H   0  0  0  0  0  0  0  0  0  0  0  0
    6.9899    0.0280   -1.6530 H   0  0  0  0  0  0  0  0  0  0  0  0
    6.8962    1.7874   -1.6540 H   0  0  0  0  0  0  0  0  0  0  0  0
    8.2140    0.9139    0.2822 H   0  0  0  0  0  0  0  0  0  0  0  0
    6.8216    1.8465    0.8140 H   0  0  0  0  0  0  0  0  0  0  0  0
    6.9985   -1.0883    0.6372 H   0  0  0  0  0  0  0  0  0  0  0  0
    2.8121    1.4835    0.7557 H   0  0  0  0  0  0  0  0  0  0  0  0
    2.9590   -2.3967   -1.1332 H   0  0  0  0  0  0  0  0  0  0  0  0
    0.5277   -2.5323   -1.0564 H   0  0  0  0  0  0  0  0  0  0  0  0
   -1.4497   -2.7630    0.1267 H   0  0  0  0  0  0  0  0  0  0  0  0
   -4.2031   -3.3647    0.2435 H   0  0  0  0  0  0  0  0  0  0  0  0
   -6.6678    0.1483    0.0615 H   0  0  0  0  0  0  0  0  0  0  0  0
   -6.4414   -2.2832    0.2321 H   0  0  0  0  0  0  0  0  0  0  0  0
   -2.5586    2.3197   -0.2257 H   0  0  0  0  0  0  0  0  0  0  0  0
   -3.5279    3.7409   -0.2867 H   0  0  0  0  0  0  0  0  0  0  0  0
  1 16  1  0  0  0  0
  2 25  2  0  0  0  0
  3  9  1  0  0  0  0
  3 11  1  0  0  0  0
  3 35  1  0  0  0  0
  4 18  1  0  0  0  0
  4 19  1  0  0  0  0
  4 39  1  0  0  0  0
  5 18  2  0  0  0  0
  5 20  1  0  0  0  0
  6 25  1  0  0  0  0
  6 43  1  0  0  0  0
  6 44  1  0  0  0  0
  7  8  1  0  0  0  0
  7  9  1  0  0  0  0
  7 12  1  0  0  0  0
  7 26  1  0  0  0  0
  8 10  1  0  0  0  0
  8 27  1  0  0  0  0
  8 28  1  0  0  0  0
  9 29  1  0  0  0  0
  9 30  1  0  0  0  0
 10 11  1  0  0  0  0
 10 31  1  0  0  0  0
 10 32  1  0  0  0  0
 11 33  1  0  0  0  0
 11 34  1  0  0  0  0
 12 13  2  0  0  0  0
 12 14  1  0  0  0  0
 13 16  1  0  0  0  0
 13 36  1  0  0  0  0
 14 17  2  0  0  0  0
 14 37  1  0  0  0  0
 15 16  2  0  0  0  0
 15 17  1  0  0  0  0
 15 18  1  0  0  0  0
 17 38  1  0  0  0  0
 19 20  1  0  0  0  0
 19 22  2  0  0  0  0
 20 21  2  0  0  0  0
 21 23  1  0  0  0  0
 21 25  1  0  0  0  0
 22 24  1  0  0  0  0
 22 40  1  0  0  0  0
 23 24  2  0  0  0  0
 23 41  1  0  0  0  0
 24 42  1  0  0  0  0
M  END
> <PUBCHEM_COMPOUND_CID>
16665630

> <PUBCHEM_CONFORMER_RMSD>
0.8

> <PUBCHEM_CONFORMER_DIVERSEORDER>
2
49
57
47
31
20
53
55
17
40
56
41
34
39
51
33
7
46
54
9
27
12
18
26
29
10
5
30
43
19
48
11
3
15
36
24
37
50
23
44
1
52
28
38
8
32
16
25
6
21
13
14
4
35
45
42
22

> <PUBCHEM_MMFF94_PARTIAL_CHARGES>
33
1 -0.19
11 0.27
12 -0.14
13 -0.15
14 -0.15
15 0.05
16 0.19
17 -0.15
18 0.13
19 -0.15
2 -0.57
20 0.23
21 0.09
22 -0.15
23 -0.15
24 -0.15
25 0.54
3 -0.9
35 0.36
36 0.15
37 0.15
38 0.15
39 0.27
4 0.03
40 0.15
41 0.15
42 0.15
43 0.37
44 0.37
5 -0.57
6 -0.8
7 0.14
9 0.27

> <PUBCHEM_EFFECTIVE_ROTOR_COUNT>
4.2

> <PUBCHEM_PHARMACOPHORE_FEATURES>
10
1 2 acceptor
1 3 cation
1 3 donor
1 4 donor
1 6 donor
3 4 5 18 cation
5 4 5 18 19 20 rings
6 12 13 14 15 16 17 rings
6 19 20 21 22 23 24 rings
6 3 7 8 9 10 11 rings

> <PUBCHEM_HEAVY_ATOM_COUNT>
25

> <PUBCHEM_ATOM_DEF_STEREO_COUNT>
0

> <PUBCHEM_ATOM_UDEF_STEREO_COUNT>
1

> <PUBCHEM_BOND_DEF_STEREO_COUNT>
0

> <PUBCHEM_BOND_UDEF_STEREO_COUNT>
0

> <PUBCHEM_ISOTOPIC_ATOM_COUNT>
0

> <PUBCHEM_COMPONENT_COUNT>
1

> <PUBCHEM_CACTVS_TAUTO_COUNT>
7

> <PUBCHEM_CONFORMER_ID>
00FE4C1E00000002

> <PUBCHEM_MMFF94_ENERGY>
57.5968

> <PUBCHEM_FEATURE_SELFOVERLAP>
50.854

> <PUBCHEM_SHAPE_FINGERPRINT>
10 15 18260275127150162113
10087517 78 18260546719043361701
10411042 1 18049725424128039019
10554248 39 18189321395035817118
10595046 47 18259986006778301262
10835480 77 18271804584045177592
10906281 52 18337409187647830050
11315181 36 17894912962279797671
11719270 70 18272930497544239406
12107183 9 17756416063325088234
12236239 1 18186518813538293682
12403259 415 18060132176075027856
12516196 113 17704356593231994008
12596602 18 17095526214143274249
12616971 3 16588033406554779527
13073987 5 18334295336226783635
13167372 99 18260830393533710700
13403585 85 18411697699204848257
13533116 47 17167854246030855234
13590594 115 16660361476274556100
13785724 45 17830728756646131674
14251764 18 18187082879413221447
14856354 85 18335426823923092583
15183329 4 18335424577681206644
15196674 1 18340207397163856119
15419008 47 17846495954280841856
1601671 61 18412825772576288636
16126227 98 18198348347774099553
17844677 252 18338520845074152904
17980427 23 18040442104570013983
18608769 82 18338523057673653787
19377110 9 17676200269482353960
20281389 69 18408603669395190528
21033648 29 17774706628199820675
21033650 10 18118432590579517900
21130935 74 18334290960087885914
21236236 1 18410292510681201205
21267235 1 18339648957638252051
21279426 13 18271250400415439390
21315763 129 18410574024027988764
21315763 28 18335983147052647086
21421861 104 17750786641575319554
21792961 116 18131077004617115030
23081809 10 17822012025675131942
23402539 116 18187361042980625119
23522609 53 17749691622499269940
23536379 177 17967812756412600378
23559900 14 18273207616869996825
23569943 247 15793113910908201160
249057 25 17603874445798619094
3004659 81 18334861589664085630
335352 9 18411134758811968149
34797466 226 17845947328760354540
350125 39 18411704313744673337
3545911 37 18202567293320018247
3663271 9 17967248711284768962
4073 2 18113344128239755378
4214541 1 18410575072369040205
4340502 62 17312820490160789170
445580 37 18411149034481718644
5104073 3 18338240353871962787
5283173 99 18339927008787348144
542803 24 18260548939504348230
6327066 14 18116425935390341741
67856867 119 18115312322419198524

> <PUBCHEM_SHAPE_MULTIPOLES>
481.42
18.02
2.22
0.89
14.19
0.74
0.01
4.49
0.43
-4.05
-0.16
1.29
0.03
0.04

> <PUBCHEM_SHAPE_SELFOVERLAP>
1066.14

> <PUBCHEM_SHAPE_VOLUME>
259.1

> <PUBCHEM_COORDINATE_TYPE>
2
5
10

$$$$
