44186884
  -OEChem-10062121523D

 36 40  0     0  0  0  0  0  0999 V2000
   -3.3363   -0.7974   -0.7097 N   0  0  0  0  0  0  0  0  0  0  0  0
    1.1421   -0.9790   -0.0670 N   0  0  0  0  0  0  0  0  0  0  0  0
   -0.6979   -2.0453    0.2568 N   0  0  0  0  0  0  0  0  0  0  0  0
   -4.1704   -1.7585   -0.2796 N   0  0  0  0  0  0  0  0  0  0  0  0
    0.5389   -1.8882    0.7158 N   0  0  0  0  0  0  0  0  0  0  0  0
    6.3109    0.7227    0.5698 N   0  0  0  0  0  0  0  0  0  0  0  0
   -5.1274   -1.1697    0.4296 N   0  0  0  0  0  0  0  0  0  0  0  0
    6.4848    1.6143   -0.4201 N   0  0  0  0  0  0  0  0  0  0  0  0
   -2.1224   -1.1592   -1.5589 C   0  0  0  0  0  0  0  0  0  0  0  0
   -0.8535   -1.2202   -0.8222 C   0  0  0  0  0  0  0  0  0  0  0  0
    2.4530   -0.5935    0.1509 C   0  0  0  0  0  0  0  0  0  0  0  0
   -3.7299    0.4408   -0.2911 C   0  0  0  0  0  0  0  0  0  0  0  0
    4.3726    0.7337   -0.4558 C   0  0  0  0  0  0  0  0  0  0  0  0
    0.3109   -0.5296   -1.0464 C   0  0  0  0  0  0  0  0  0  0  0  0
    5.0646    0.1580    0.6039 C   0  0  0  0  0  0  0  0  0  0  0  0
    3.0406    0.3564   -0.6941 C   0  0  0  0  0  0  0  0  0  0  0  0
   -4.8813    0.1779    0.4383 C   0  0  0  0  0  0  0  0  0  0  0  0
    3.1709   -1.1560    1.2080 C   0  0  0  0  0  0  0  0  0  0  0  0
    4.4976   -0.7906    1.4580 C   0  0  0  0  0  0  0  0  0  0  0  0
   -3.2081    1.7197   -0.4735 C   0  0  0  0  0  0  0  0  0  0  0  0
   -5.5772    1.2393    1.0351 C   0  0  0  0  0  0  0  0  0  0  0  0
    5.3035    1.6181   -1.0419 C   0  0  0  0  0  0  0  0  0  0  0  0
   -3.9116    2.7698    0.1266 C   0  0  0  0  0  0  0  0  0  0  0  0
   -5.0743    2.5363    0.8674 C   0  0  0  0  0  0  0  0  0  0  0  0
   -2.1093   -0.4058   -2.3544 H   0  0  0  0  0  0  0  0  0  0  0  0
   -2.3677   -2.1281   -2.0082 H   0  0  0  0  0  0  0  0  0  0  0  0
    0.5609    0.2034   -1.7995 H   0  0  0  0  0  0  0  0  0  0  0  0
    2.5262    0.8210   -1.5265 H   0  0  0  0  0  0  0  0  0  0  0  0
    2.7301   -1.8950    1.8737 H   0  0  0  0  0  0  0  0  0  0  0  0
    5.0572   -1.2260    2.2783 H   0  0  0  0  0  0  0  0  0  0  0  0
   -2.3067    1.9002   -1.0474 H   0  0  0  0  0  0  0  0  0  0  0  0
   -6.4801    1.0676    1.6118 H   0  0  0  0  0  0  0  0  0  0  0  0
    5.1683    2.2651   -1.8972 H   0  0  0  0  0  0  0  0  0  0  0  0
    7.0882    0.5433    1.1931 H   0  0  0  0  0  0  0  0  0  0  0  0
   -3.5461    3.7877    0.0144 H   0  0  0  0  0  0  0  0  0  0  0  0
   -5.5974    3.3742    1.3212 H   0  0  0  0  0  0  0  0  0  0  0  0
  1  4  1  0  0  0  0
  1  9  1  0  0  0  0
  1 12  1  0  0  0  0
  2  5  1  0  0  0  0
  2 11  1  0  0  0  0
  2 14  1  0  0  0  0
  3  5  2  0  0  0  0
  3 10  1  0  0  0  0
  4  7  2  0  0  0  0
  6  8  1  0  0  0  0
  6 15  1  0  0  0  0
  6 34  1  0  0  0  0
  7 17  1  0  0  0  0
  8 22  2  0  0  0  0
  9 10  1  0  0  0  0
  9 25  1  0  0  0  0
  9 26  1  0  0  0  0
 10 14  2  0  0  0  0
 11 16  2  0  0  0  0
 11 18  1  0  0  0  0
 12 17  1  0  0  0  0
 12 20  2  0  0  0  0
 13 15  2  0  0  0  0
 13 16  1  0  0  0  0
 13 22  1  0  0  0  0
 14 27  1  0  0  0  0
 15 19  1  0  0  0  0
 16 28  1  0  0  0  0
 17 21  2  0  0  0  0
 18 19  2  0  0  0  0
 18 29  1  0  0  0  0
 19 30  1  0  0  0  0
 20 23  1  0  0  0  0
 20 31  1  0  0  0  0
 21 24  1  0  0  0  0
 21 32  1  0  0  0  0
 22 33  1  0  0  0  0
 23 24  2  0  0  0  0
 23 35  1  0  0  0  0
 24 36  1  0  0  0  0
M  END
> <PUBCHEM_COMPOUND_CID>
44186884

> <PUBCHEM_CONFORMER_RMSD>
0.6

> <PUBCHEM_CONFORMER_DIVERSEORDER>
4
132
63
87
78
134
126
29
130
82
113
68
75
122
26
18
91
62
107
19
41
25
103
111
133
102
53
32
30
137
92
106
47
56
36
69
10
95
49
89
123
83
129
112
54
135
67
20
6
72
24
44
21
70
77
76
23
110
65
9
94
22
17
79
52
46
116
55
114
144
115
84
71
37
141
85
131
7
43
117
31
136
121
60
35
90
125
73
108
80
16
27
93
143
12
86
61
109
97
48
139
15
74
96
118
13
39
64
57
11
2
45
124
101
33
142
140
88
119
99
40
50
5
1
120
14
3
105
104
138
66
81
8
38
34
58
100
59
127
51
42
28
98
128

> <PUBCHEM_MMFF94_PARTIAL_CHARGES>
33
1 0.31
10 0.05
11 -0.02
12 -0.15
14 -0.3
15 -0.15
16 -0.15
17 0.23
18 -0.15
19 -0.15
2 0.59
20 -0.15
21 -0.15
22 0.14
23 -0.15
24 -0.15
27 0.15
28 0.15
29 0.15
3 -0.23
30 0.15
31 0.15
32 0.15
33 0.15
34 0.27
35 0.15
36 0.15
4 -0.42
5 -0.42
6 0.3
7 -0.23
8 -0.71
9 0.44

> <PUBCHEM_EFFECTIVE_ROTOR_COUNT>
3

> <PUBCHEM_PHARMACOPHORE_FEATURES>
7
1 6 donor
1 8 acceptor
5 1 4 7 12 17 rings
5 2 3 5 10 14 rings
5 6 8 13 15 22 rings
6 11 13 15 16 18 19 rings
6 12 17 20 21 23 24 rings

> <PUBCHEM_HEAVY_ATOM_COUNT>
24

> <PUBCHEM_ATOM_DEF_STEREO_COUNT>
0

> <PUBCHEM_ATOM_UDEF_STEREO_COUNT>
0

> <PUBCHEM_BOND_DEF_STEREO_COUNT>
0

> <PUBCHEM_BOND_UDEF_STEREO_COUNT>
0

> <PUBCHEM_ISOTOPIC_ATOM_COUNT>
0

> <PUBCHEM_COMPONENT_COUNT>
1

> <PUBCHEM_CACTVS_TAUTO_COUNT>
2

> <PUBCHEM_CONFORMER_ID>
02A23D0400000004

> <PUBCHEM_MMFF94_ENERGY>
47.2143

> <PUBCHEM_FEATURE_SELFOVERLAP>
35.719

> <PUBCHEM_SHAPE_FINGERPRINT>
10 15 18334584521086262201
10165383 225 16988853791589097831
105312 117 17060334124008559823
10730089 173 18272654549741532276
12107183 9 17902501589186254010
12236239 1 18410009949199103450
12390115 104 18130516257928928649
12596602 18 17748825215709660817
12633257 1 16154006697886261221
12969540 114 15841546370865547279
13167372 99 18410572882136224928
13785724 45 17761205523861847122
14341114 328 18334858294838178505
14790565 3 18409168822614158628
14848160 23 12612753531720470764
14848178 5 10953459626311452048
14849402 71 17969508285274902196
15163728 17 17917159294797162239
15183329 4 15267348400965848398
15188451 53 12179845026066054321
15238133 3 18271516551391546984
15475509 8 18263098660526101796
15510800 12 12252190632301142737
15685185 35 17389965670746220372
1601671 61 18202561774566500836
19377110 9 18113623395465430323
200 152 11600012076191017646
20028762 73 9151181939694350972
20281389 69 18130785663836547666
20739085 24 17676773059290337526
21033648 29 17418082235223081418
21065198 48 18334008376418339819
21302155 148 18340208488338951657
21623969 137 15357695293148311352
21756936 100 18342171193555497998
22061861 79 14548739512653319196
22956985 138 17179416985171097915
23559900 14 17772472287529225750
2838139 119 17845925256327412112
312425 54 15936694757555150881
3663271 9 18114179743859082282
38570 142 17460061632807051468
397830 11 12108074448282756964
4098825 35 18272095985524564862
46194498 28 15409175599670045913
5104073 3 18114463370604040667
5718773 13 12541279809166007777
57724786 102 17841436930178382307
633830 44 18338513041176897422
636775 72 18198337567342857096
7062679 6 18413109467687107468
7808743 9 18343018883056095223
960060 61 12391506499418610706

> <PUBCHEM_SHAPE_MULTIPOLES>
454.06
16.42
2.41
1.21
7.44
0.83
0.01
9.33
3.09
-2.4
0.08
0.4
-0.14
-1.9

> <PUBCHEM_SHAPE_SELFOVERLAP>
1029.412

> <PUBCHEM_SHAPE_VOLUME>
240.8

> <PUBCHEM_COORDINATE_TYPE>
2
5
10

$$$$
