44415997
  -OEChem-10052115183D

 43 46  0     0  0  0  0  0  0999 V2000
   -2.1446   -1.8463   -0.3601 N   0  0  0  0  0  0  0  0  0  0  0  0
   -5.0410    2.9212    0.6506 N   0  0  0  0  0  0  0  0  0  0  0  0
    0.0753   -1.2443   -0.0566 N   0  0  0  0  0  0  0  0  0  0  0  0
   -0.5724   -3.5518   -0.3086 N   0  0  0  0  0  0  0  0  0  0  0  0
    4.1998    0.3536    0.9626 N   0  0  0  0  0  0  0  0  0  0  0  0
    3.9162    2.5766    0.0787 N   0  0  0  0  0  0  0  0  0  0  0  0
   -2.5824   -0.4681   -0.3052 C   0  0  0  0  0  0  0  0  0  0  0  0
   -4.5596    1.5416    0.5884 C   0  0  0  0  0  0  0  0  0  0  0  0
   -2.6380   -0.0019    1.1512 C   0  0  0  0  0  0  0  0  0  0  0  0
   -3.9474   -0.3412   -0.9843 C   0  0  0  0  0  0  0  0  0  0  0  0
   -3.1884    1.4192    1.2639 C   0  0  0  0  0  0  0  0  0  0  0  0
   -4.4996    1.0793   -0.8719 C   0  0  0  0  0  0  0  0  0  0  0  0
   -0.8237   -2.2307   -0.2365 C   0  0  0  0  0  0  0  0  0  0  0  0
    1.3552   -1.6550    0.0606 C   0  0  0  0  0  0  0  0  0  0  0  0
    2.3287   -0.6188    0.2524 C   0  0  0  0  0  0  0  0  0  0  0  0
    2.3251    0.7302   -0.1911 C   0  0  0  0  0  0  0  0  0  0  0  0
    1.7440   -2.9779    0.0046 C   0  0  0  0  0  0  0  0  0  0  0  0
    0.7273   -3.8917   -0.1835 C   0  0  0  0  0  0  0  0  0  0  0  0
    3.5049    1.3084    0.2679 C   0  0  0  0  0  0  0  0  0  0  0  0
    3.4944   -0.8218    0.9590 C   0  0  0  0  0  0  0  0  0  0  0  0
    1.4545    1.5422   -0.9360 C   0  0  0  0  0  0  0  0  0  0  0  0
    1.8317    2.8648   -1.1620 C   0  0  0  0  0  0  0  0  0  0  0  0
    3.0398    3.3123   -0.6441 C   0  0  0  0  0  0  0  0  0  0  0  0
   -1.8848    0.1703   -0.8639 H   0  0  0  0  0  0  0  0  0  0  0  0
   -5.2745    0.9079    1.1287 H   0  0  0  0  0  0  0  0  0  0  0  0
   -1.6436   -0.0334    1.6112 H   0  0  0  0  0  0  0  0  0  0  0  0
   -3.2696   -0.6819    1.7383 H   0  0  0  0  0  0  0  0  0  0  0  0
   -4.6616   -1.0420   -0.5316 H   0  0  0  0  0  0  0  0  0  0  0  0
   -3.8682   -0.6207   -2.0422 H   0  0  0  0  0  0  0  0  0  0  0  0
   -3.2633    1.6941    2.3232 H   0  0  0  0  0  0  0  0  0  0  0  0
   -2.4765    2.1174    0.8039 H   0  0  0  0  0  0  0  0  0  0  0  0
   -3.8655    1.7579   -1.4578 H   0  0  0  0  0  0  0  0  0  0  0  0
   -5.4997    1.1124   -1.3215 H   0  0  0  0  0  0  0  0  0  0  0  0
   -2.8332   -2.5850   -0.4465 H   0  0  0  0  0  0  0  0  0  0  0  0
   -5.1276    3.2104    1.6240 H   0  0  0  0  0  0  0  0  0  0  0  0
   -5.9759    2.9772    0.2488 H   0  0  0  0  0  0  0  0  0  0  0  0
    2.7702   -3.3140    0.0841 H   0  0  0  0  0  0  0  0  0  0  0  0
    0.9360   -4.9545   -0.2442 H   0  0  0  0  0  0  0  0  0  0  0  0
    3.8956   -1.6849    1.4733 H   0  0  0  0  0  0  0  0  0  0  0  0
    5.0944    0.4956    1.4104 H   0  0  0  0  0  0  0  0  0  0  0  0
    0.5175    1.1671   -1.3336 H   0  0  0  0  0  0  0  0  0  0  0  0
    1.1931    3.5307   -1.7324 H   0  0  0  0  0  0  0  0  0  0  0  0
    3.3497    4.3406   -0.8109 H   0  0  0  0  0  0  0  0  0  0  0  0
  1  7  1  0  0  0  0
  1 13  1  0  0  0  0
  1 34  1  0  0  0  0
  2  8  1  0  0  0  0
  2 35  1  0  0  0  0
  2 36  1  0  0  0  0
  3 13  1  0  0  0  0
  3 14  2  0  0  0  0
  4 13  2  0  0  0  0
  4 18  1  0  0  0  0
  5 19  1  0  0  0  0
  5 20  1  0  0  0  0
  5 40  1  0  0  0  0
  6 19  1  0  0  0  0
  6 23  2  0  0  0  0
  7  9  1  0  0  0  0
  7 10  1  0  0  0  0
  7 24  1  0  0  0  0
  8 11  1  0  0  0  0
  8 12  1  0  0  0  0
  8 25  1  0  0  0  0
  9 11  1  0  0  0  0
  9 26  1  0  0  0  0
  9 27  1  0  0  0  0
 10 12  1  0  0  0  0
 10 28  1  0  0  0  0
 10 29  1  0  0  0  0
 11 30  1  0  0  0  0
 11 31  1  0  0  0  0
 12 32  1  0  0  0  0
 12 33  1  0  0  0  0
 14 15  1  0  0  0  0
 14 17  1  0  0  0  0
 15 16  1  0  0  0  0
 15 20  2  0  0  0  0
 16 19  2  0  0  0  0
 16 21  1  0  0  0  0
 17 18  2  0  0  0  0
 17 37  1  0  0  0  0
 18 38  1  0  0  0  0
 20 39  1  0  0  0  0
 21 22  2  0  0  0  0
 21 41  1  0  0  0  0
 22 23  1  0  0  0  0
 22 42  1  0  0  0  0
 23 43  1  0  0  0  0
M  END
> <PUBCHEM_COMPOUND_CID>
44415997

> <PUBCHEM_CONFORMER_RMSD>
0.8

> <PUBCHEM_CONFORMER_DIVERSEORDER>
1
31
47
63
59
26
88
9
18
38
14
92
90
56
75
22
74
42
10
4
78
73
48
28
87
57
61
79
17
37
71
76
51
53
19
91
65
16
29
81
13
50
12
69
89
82
64
33
23
77
41
2
67
43
45
93
58
86
21
66
46
30
94
72
20
44
7
39
70
62
84
68
15
80
83
34
55
49
40
11
85
25
24
8
36
60
35
54
52
6
5
27
3
32

> <PUBCHEM_MMFF94_PARTIAL_CHARGES>
28
1 -0.87
13 0.72
14 0.36
15 -0.05
17 -0.15
18 0.16
19 0.11
2 -0.99
20 -0.3
21 -0.15
22 -0.15
23 0.16
3 -0.62
34 0.4
35 0.36
36 0.36
37 0.15
38 0.15
39 0.15
4 -0.62
40 0.27
41 0.15
42 0.15
43 0.15
5 0.03
6 -0.57
7 0.37
8 0.27

> <PUBCHEM_EFFECTIVE_ROTOR_COUNT>
4.2

> <PUBCHEM_PHARMACOPHORE_FEATURES>
12
1 1 donor
1 2 cation
1 2 donor
1 3 acceptor
1 5 cation
1 5 donor
1 6 acceptor
4 1 3 4 13 cation
5 5 15 16 19 20 rings
6 3 4 13 14 17 18 rings
6 6 16 19 21 22 23 rings
6 7 8 9 10 11 12 rings

> <PUBCHEM_HEAVY_ATOM_COUNT>
23

> <PUBCHEM_ATOM_DEF_STEREO_COUNT>
0

> <PUBCHEM_ATOM_UDEF_STEREO_COUNT>
0

> <PUBCHEM_BOND_DEF_STEREO_COUNT>
0

> <PUBCHEM_BOND_UDEF_STEREO_COUNT>
0

> <PUBCHEM_ISOTOPIC_ATOM_COUNT>
0

> <PUBCHEM_COMPONENT_COUNT>
1

> <PUBCHEM_CACTVS_TAUTO_COUNT>
16

> <PUBCHEM_CONFORMER_ID>
02A5BBFD00000001

> <PUBCHEM_MMFF94_ENERGY>
44.8142

> <PUBCHEM_FEATURE_SELFOVERLAP>
61.009

> <PUBCHEM_SHAPE_FINGERPRINT>
10369192 42 13552899866198954364
10411042 1 17545880434562679703
10483366 6 18194144949127362702
10708813 3 18190459556963383180
10937287 8 18339081600283266613
11370993 70 18411412951336626329
11640471 11 18060143094229982155
11725454 13 16952222397467499207
12107183 9 18263909069273103144
12173636 292 18052532463499941030
12403259 327 17095250180868847139
12403260 363 18338220678447483079
12633257 1 17821719516315469632
12788726 201 17909260630802105855
12978246 48 18264770037668432457
13140716 1 18334858350509365962
13583140 156 17603578647259444115
13590594 115 17618508683513887394
138480 1 17978230456807259031
13965767 371 18265310873061769176
14251764 38 18407762538794431251
14251764 75 18339094781913217689
14767858 380 18127390454268045423
14790565 3 18334863857190735404
15003188 8 18337940199792142584
15420108 30 18199166443942588514
15475509 8 18270130011558097694
1601671 61 18334860489872460886
17810953 82 18339367336311088369
20157964 124 18337950074876809677
20567600 299 18267578022873051857
20715895 44 18194114128162841137
20739085 24 18264206907532093362
21033648 144 18041551529388581581
21298829 104 18269267959682002985
21860390 5 18127975196041416775
21864079 5 18338803419504066127
22749437 52 18412262869566820705
23558518 356 18410008866604659539
245318 6 18042419069759289613
328310 1195 17898268543098398973
397830 11 18117019719235715265
474 4 18410571752206573547
5048184 11 18337959020328394437
513202 73 17395263864871413746
6328613 192 18336549434581260076
6523845 18 17980801316871981177
7064713 232 18340474651741265784
9980921 221 16963823649585416836
9981440 41 18338793524174178179

> <PUBCHEM_SHAPE_MULTIPOLES>
443.44
9.16
4.65
1.06
7.6
1.71
0.07
-8.1
1.42
-2.11
-0.84
0.4
-0.41
-1.39

> <PUBCHEM_SHAPE_SELFOVERLAP>
973.132

> <PUBCHEM_SHAPE_VOLUME>
235.8

> <PUBCHEM_COORDINATE_TYPE>
2
5
10

$$$$
