9798600
  -OEChem-10052120433D

 50 52  0     0  0  0  0  0  0999 V2000
    3.4325   -1.1717    0.5703 O   0  0  0  0  0  0  0  0  0  0  0  0
   -7.0856   -1.8093    0.1222 O   0  0  0  0  0  0  0  0  0  0  0  0
    6.6931    0.3148   -0.2846 N   0  0  0  0  0  0  0  0  0  0  0  0
   -2.3448    1.5199   -0.2215 N   0  0  0  0  0  0  0  0  0  0  0  0
   -2.9801   -0.5811    0.1280 N   0  0  0  0  0  0  0  0  0  0  0  0
   -4.8996   -2.4564    0.3698 N   0  0  0  0  0  0  0  0  0  0  0  0
    5.6861   -0.7207   -0.1078 C   0  0  0  0  0  0  0  0  0  0  0  0
    6.9748    0.9865    0.9864 C   0  0  0  0  0  0  0  0  0  0  0  0
    7.9249   -0.2499   -0.8415 C   0  0  0  0  0  0  0  0  0  0  0  0
    4.3938   -0.1267    0.4293 C   0  0  0  0  0  0  0  0  0  0  0  0
   -1.9541    0.2346    0.0326 C   0  0  0  0  0  0  0  0  0  0  0  0
   -3.7141    1.5345   -0.2950 C   0  0  0  0  0  0  0  0  0  0  0  0
   -4.0866    0.2114   -0.0736 C   0  0  0  0  0  0  0  0  0  0  0  0
   -0.5645   -0.1282    0.1718 C   0  0  0  0  0  0  0  0  0  0  0  0
    7.9576    2.0979    0.8073 C   0  0  0  0  0  0  0  0  0  0  0  0
    7.6665   -0.9422   -2.1403 C   0  0  0  0  0  0  0  0  0  0  0  0
    2.1218   -0.8295    0.4401 C   0  0  0  0  0  0  0  0  0  0  0  0
   -5.4504   -0.1267   -0.0826 C   0  0  0  0  0  0  0  0  0  0  0  0
   -0.1390   -1.4068   -0.1870 C   0  0  0  0  0  0  0  0  0  0  0  0
    0.3523    0.8000    0.6647 C   0  0  0  0  0  0  0  0  0  0  0  0
    1.2043   -1.7576   -0.0527 C   0  0  0  0  0  0  0  0  0  0  0  0
    1.6957    0.4494    0.7989 C   0  0  0  0  0  0  0  0  0  0  0  0
   -4.6307    2.5600   -0.5290 C   0  0  0  0  0  0  0  0  0  0  0  0
   -6.3886    0.8867   -0.3154 C   0  0  0  0  0  0  0  0  0  0  0  0
   -5.9839    2.2056   -0.5344 C   0  0  0  0  0  0  0  0  0  0  0  0
   -5.8814   -1.4943    0.1440 C   0  0  0  0  0  0  0  0  0  0  0  0
    6.0318   -1.5221    0.5593 H   0  0  0  0  0  0  0  0  0  0  0  0
    5.4217   -1.2032   -1.0554 H   0  0  0  0  0  0  0  0  0  0  0  0
    6.0803    1.4755    1.3808 H   0  0  0  0  0  0  0  0  0  0  0  0
    7.3306    0.2837    1.7502 H   0  0  0  0  0  0  0  0  0  0  0  0
    8.6438    0.5456   -1.0638 H   0  0  0  0  0  0  0  0  0  0  0  0
    8.4076   -0.9420   -0.1397 H   0  0  0  0  0  0  0  0  0  0  0  0
    4.5133    0.2977    1.4292 H   0  0  0  0  0  0  0  0  0  0  0  0
    4.0500    0.6480   -0.2692 H   0  0  0  0  0  0  0  0  0  0  0  0
    8.9828    1.7399    0.6697 H   0  0  0  0  0  0  0  0  0  0  0  0
    7.6965    2.7489   -0.0346 H   0  0  0  0  0  0  0  0  0  0  0  0
    7.9743    2.7277    1.7047 H   0  0  0  0  0  0  0  0  0  0  0  0
    8.6172   -1.1407   -2.6492 H   0  0  0  0  0  0  0  0  0  0  0  0
    7.0623   -0.3326   -2.8216 H   0  0  0  0  0  0  0  0  0  0  0  0
    7.1824   -1.9159   -2.0141 H   0  0  0  0  0  0  0  0  0  0  0  0
   -1.7430    2.3229   -0.3491 H   0  0  0  0  0  0  0  0  0  0  0  0
   -0.8369   -2.1444   -0.5760 H   0  0  0  0  0  0  0  0  0  0  0  0
    0.0497    1.7982    0.9713 H   0  0  0  0  0  0  0  0  0  0  0  0
    1.5309   -2.7549   -0.3346 H   0  0  0  0  0  0  0  0  0  0  0  0
    2.3702    1.1917    1.2151 H   0  0  0  0  0  0  0  0  0  0  0  0
   -4.3141    3.5828   -0.6987 H   0  0  0  0  0  0  0  0  0  0  0  0
   -7.4535    0.6659   -0.3300 H   0  0  0  0  0  0  0  0  0  0  0  0
   -6.7340    2.9722   -0.7125 H   0  0  0  0  0  0  0  0  0  0  0  0
   -5.1612   -3.4245    0.5258 H   0  0  0  0  0  0  0  0  0  0  0  0
   -3.9059   -2.2573    0.3916 H   0  0  0  0  0  0  0  0  0  0  0  0
  1 10  1  0  0  0  0
  1 17  1  0  0  0  0
  2 26  2  0  0  0  0
  3  7  1  0  0  0  0
  3  8  1  0  0  0  0
  3  9  1  0  0  0  0
  4 11  1  0  0  0  0
  4 12  1  0  0  0  0
  4 41  1  0  0  0  0
  5 11  2  0  0  0  0
  5 13  1  0  0  0  0
  6 26  1  0  0  0  0
  6 49  1  0  0  0  0
  6 50  1  0  0  0  0
  7 10  1  0  0  0  0
  7 27  1  0  0  0  0
  7 28  1  0  0  0  0
  8 15  1  0  0  0  0
  8 29  1  0  0  0  0
  8 30  1  0  0  0  0
  9 16  1  0  0  0  0
  9 31  1  0  0  0  0
  9 32  1  0  0  0  0
 10 33  1  0  0  0  0
 10 34  1  0  0  0  0
 11 14  1  0  0  0  0
 12 13  1  0  0  0  0
 12 23  2  0  0  0  0
 13 18  2  0  0  0  0
 14 19  2  0  0  0  0
 14 20  1  0  0  0  0
 15 35  1  0  0  0  0
 15 36  1  0  0  0  0
 15 37  1  0  0  0  0
 16 38  1  0  0  0  0
 16 39  1  0  0  0  0
 16 40  1  0  0  0  0
 17 21  2  0  0  0  0
 17 22  1  0  0  0  0
 18 24  1  0  0  0  0
 18 26  1  0  0  0  0
 19 21  1  0  0  0  0
 19 42  1  0  0  0  0
 20 22  2  0  0  0  0
 20 43  1  0  0  0  0
 21 44  1  0  0  0  0
 22 45  1  0  0  0  0
 23 25  1  0  0  0  0
 23 46  1  0  0  0  0
 24 25  2  0  0  0  0
 24 47  1  0  0  0  0
 25 48  1  0  0  0  0
M  END
> <PUBCHEM_COMPOUND_CID>
9798600

> <PUBCHEM_CONFORMER_RMSD>
0.8

> <PUBCHEM_CONFORMER_DIVERSEORDER>
2
67
149
136
70
95
154
171
104
79
32
86
93
132
138
61
35
179
109
177
85
125
17
31
37
56
114
90
135
80
175
78
111
11
54
131
76
47
52
112
21
74
182
156
71
174
96
145
144
53
29
153
43
146
18
157
134
107
130
36
137
99
94
40
5
160
159
81
64
155
28
87
113
46
58
169
30
60
102
91
129
14
89
23
69
100
127
34
126
51
115
123
116
122
121
38
83
117
120
12
41
33
50
139
142
108
45
19
118
103
147
119
186
140
148
7
128
162
88
25
55
66
173
106
97
152
44
77
39
68
124
24
84
82
185
75
62
59
133
63
22
20
73
42
180
141
150
72
49
1
16
65
92
9
143
13
151
110
27
10
15
176
98
184
48
3
57
4
26
8
167
170
161
105
158
165
164
163
101
178
166
6
172
183
168
181

> <PUBCHEM_MMFF94_PARTIAL_CHARGES>
34
1 -0.36
10 0.28
11 0.13
12 -0.15
13 0.23
14 0.05
17 0.08
18 0.09
19 -0.15
2 -0.57
20 -0.15
21 -0.15
22 -0.15
23 -0.15
24 -0.15
25 -0.15
26 0.54
3 -0.81
4 0.03
41 0.27
42 0.15
43 0.15
44 0.15
45 0.15
46 0.15
47 0.15
48 0.15
49 0.37
5 -0.57
50 0.37
6 -0.8
7 0.27
8 0.27
9 0.27

> <PUBCHEM_EFFECTIVE_ROTOR_COUNT>
8

> <PUBCHEM_PHARMACOPHORE_FEATURES>
9
1 1 acceptor
1 2 acceptor
1 3 cation
1 4 donor
1 6 donor
3 4 5 11 cation
5 4 5 11 12 13 rings
6 12 13 18 23 24 25 rings
6 14 17 19 20 21 22 rings

> <PUBCHEM_HEAVY_ATOM_COUNT>
26

> <PUBCHEM_ATOM_DEF_STEREO_COUNT>
0

> <PUBCHEM_ATOM_UDEF_STEREO_COUNT>
0

> <PUBCHEM_BOND_DEF_STEREO_COUNT>
0

> <PUBCHEM_BOND_UDEF_STEREO_COUNT>
0

> <PUBCHEM_ISOTOPIC_ATOM_COUNT>
0

> <PUBCHEM_COMPONENT_COUNT>
1

> <PUBCHEM_CACTVS_TAUTO_COUNT>
7

> <PUBCHEM_CONFORMER_ID>
009583C800000002

> <PUBCHEM_MMFF94_ENERGY>
66.9858

> <PUBCHEM_FEATURE_SELFOVERLAP>
45.778

> <PUBCHEM_SHAPE_FINGERPRINT>
10411042 1 17974854175634695315
10591671 39 18410298008218247646
10595046 47 18114740438875655571
10669705 176 18409450250457012110
11007060 377 18334018310551030787
11315181 36 18202281408218821585
11524674 6 16773794818701118047
11973863 73 13829862253557245886
11991303 11 17418084456053743566
12236239 1 18040995112001250394
13533116 47 17095796604716599874
13631057 29 18408601492363989723
13914758 101 10447933875469536806
14251764 18 17530964687684567384
14856354 85 18260835934031362927
14933364 13 18412825776860589472
150020 25 18343866598115955020
15183329 4 17748832912681711532
15510794 2 18272651243276019438
1577012 14 18114177497633293114
15849732 13 18341894104299351652
18335252 98 18341897398223230266
18608769 82 18341328989176238019
18681886 176 18409162238028425904
20281389 69 18187078426281247800
21150785 3 17967254208647838998
21267235 1 18336830879440120875
21792961 116 17989209205444708314
22224240 67 13984669152809992952
23035841 295 13326851128267005732
23081809 10 17676482822569734946
23424782 7 18340769333816011186
23559900 14 18411127044618597097
23576562 1 18200581622533604565
24771750 20 17911517916038452072
335352 9 18335976503440061957
34797466 226 17989210369871228588
4073 2 18113903728034244419
4325135 7 18259704506189951679
44317340 157 17489299846060498800
445580 37 18339084795802504764
5104073 3 18340759331106204907
5265222 85 18271803566243605518
5758199 1 17676207957415772098
59682541 52 17489592230596733900
67856867 119 18041284352379364709

> <PUBCHEM_SHAPE_MULTIPOLES>
503.41
25.06
2.24
0.99
30.75
0.35
-0.34
3.81
-4.47
-2.74
-0.02
2.02
-0.02
2.45

> <PUBCHEM_SHAPE_SELFOVERLAP>
1082.296

> <PUBCHEM_SHAPE_VOLUME>
280.1

> <PUBCHEM_COORDINATE_TYPE>
2
5
10

$$$$
