24905145
  -OEChem-10052115143D

 35 37  0     0  0  0  0  0  0999 V2000
    5.8974    0.3171   -0.5141 Br  0  0  0  0  0  0  0  0  0  0  0  0
    4.1089    0.3385    2.0430 O   0  0  0  0  0  0  0  0  0  0  0  0
   -2.1764    1.0109    0.0005 N   0  0  0  0  0  0  0  0  0  0  0  0
   -0.8918    1.4038   -0.0836 N   0  0  0  0  0  0  0  0  0  0  0  0
   -3.4866   -1.0220    0.1151 N   0  0  0  0  0  0  0  0  0  0  0  0
   -2.0736   -3.0098    0.0652 N   0  0  0  0  0  0  0  0  0  0  0  0
    0.3063   -2.8973   -0.0788 N   0  0  0  0  0  0  0  0  0  0  0  0
   -3.2231    2.0042    0.0461 C   0  0  0  0  0  0  0  0  0  0  0  0
   -2.3313   -0.3432    0.0336 C   0  0  0  0  0  0  0  0  0  0  0  0
   -1.0556   -0.8752   -0.0337 C   0  0  0  0  0  0  0  0  0  0  0  0
   -0.2143    0.2507   -0.1041 C   0  0  0  0  0  0  0  0  0  0  0  0
   -3.2533    2.8491   -1.2300 C   0  0  0  0  0  0  0  0  0  0  0  0
   -3.1017    2.8936    1.2859 C   0  0  0  0  0  0  0  0  0  0  0  0
    1.2242    0.2667   -0.1912 C   0  0  0  0  0  0  0  0  0  0  0  0
   -0.9470   -2.2618   -0.0157 C   0  0  0  0  0  0  0  0  0  0  0  0
    1.9933    0.2957    0.9722 C   0  0  0  0  0  0  0  0  0  0  0  0
    1.8473    0.2534   -1.4390 C   0  0  0  0  0  0  0  0  0  0  0  0
   -3.2565   -2.3528    0.1247 C   0  0  0  0  0  0  0  0  0  0  0  0
    3.3855    0.3113    0.8877 C   0  0  0  0  0  0  0  0  0  0  0  0
    3.2395    0.2690   -1.5235 C   0  0  0  0  0  0  0  0  0  0  0  0
    4.0086    0.2981   -0.3602 C   0  0  0  0  0  0  0  0  0  0  0  0
   -4.1783    1.4697    0.1131 H   0  0  0  0  0  0  0  0  0  0  0  0
   -2.3402    3.4438   -1.3442 H   0  0  0  0  0  0  0  0  0  0  0  0
   -4.1040    3.5387   -1.2169 H   0  0  0  0  0  0  0  0  0  0  0  0
   -3.3486    2.2125   -2.1167 H   0  0  0  0  0  0  0  0  0  0  0  0
   -2.1828    3.4901    1.2685 H   0  0  0  0  0  0  0  0  0  0  0  0
   -3.0884    2.2888    2.1995 H   0  0  0  0  0  0  0  0  0  0  0  0
   -3.9492    3.5840    1.3507 H   0  0  0  0  0  0  0  0  0  0  0  0
    1.5078    0.3055    1.9460 H   0  0  0  0  0  0  0  0  0  0  0  0
    1.2620    0.2302   -2.3553 H   0  0  0  0  0  0  0  0  0  0  0  0
   -4.1380   -2.9816    0.1888 H   0  0  0  0  0  0  0  0  0  0  0  0
    3.7077    0.2579   -2.5045 H   0  0  0  0  0  0  0  0  0  0  0  0
    1.1627   -2.3666   -0.1399 H   0  0  0  0  0  0  0  0  0  0  0  0
    0.3402   -3.9078   -0.0632 H   0  0  0  0  0  0  0  0  0  0  0  0
    3.5008    0.3435    2.8020 H   0  0  0  0  0  0  0  0  0  0  0  0
  1 21  1  0  0  0  0
  2 19  1  0  0  0  0
  2 35  1  0  0  0  0
  3  4  1  0  0  0  0
  3  8  1  0  0  0  0
  3  9  1  0  0  0  0
  4 11  2  0  0  0  0
  5  9  2  0  0  0  0
  5 18  1  0  0  0  0
  6 15  1  0  0  0  0
  6 18  2  0  0  0  0
  7 15  1  0  0  0  0
  7 33  1  0  0  0  0
  7 34  1  0  0  0  0
  8 12  1  0  0  0  0
  8 13  1  0  0  0  0
  8 22  1  0  0  0  0
  9 10  1  0  0  0  0
 10 11  1  0  0  0  0
 10 15  2  0  0  0  0
 11 14  1  0  0  0  0
 12 23  1  0  0  0  0
 12 24  1  0  0  0  0
 12 25  1  0  0  0  0
 13 26  1  0  0  0  0
 13 27  1  0  0  0  0
 13 28  1  0  0  0  0
 14 16  2  0  0  0  0
 14 17  1  0  0  0  0
 16 19  1  0  0  0  0
 16 29  1  0  0  0  0
 17 20  2  0  0  0  0
 17 30  1  0  0  0  0
 18 31  1  0  0  0  0
 19 21  2  0  0  0  0
 20 21  1  0  0  0  0
 20 32  1  0  0  0  0
M  END
> <PUBCHEM_COMPOUND_CID>
24905145

> <PUBCHEM_CONFORMER_RMSD>
0.6

> <PUBCHEM_CONFORMER_DIVERSEORDER>
2
4
5
3
6
1

> <PUBCHEM_MMFF94_PARTIAL_CHARGES>
25
1 -0.11
11 0.23
14 0.05
15 0.41
16 -0.15
17 -0.15
18 0.47
19 0.08
2 -0.53
20 -0.15
21 0.11
29 0.15
3 0.31
30 0.15
31 0.15
32 0.15
33 0.4
34 0.4
35 0.45
4 -0.71
5 -0.57
6 -0.62
7 -0.9
8 0.26
9 0.11

> <PUBCHEM_EFFECTIVE_ROTOR_COUNT>
2

> <PUBCHEM_PHARMACOPHORE_FEATURES>
11
1 1 hydrophobe
1 2 donor
1 4 acceptor
1 7 cation
1 7 donor
3 3 5 9 cation
3 5 6 18 cation
3 8 12 13 hydrophobe
5 3 4 9 10 11 rings
6 14 16 17 19 20 21 rings
6 5 6 9 10 15 18 rings

> <PUBCHEM_HEAVY_ATOM_COUNT>
21

> <PUBCHEM_ATOM_DEF_STEREO_COUNT>
0

> <PUBCHEM_ATOM_UDEF_STEREO_COUNT>
0

> <PUBCHEM_BOND_DEF_STEREO_COUNT>
0

> <PUBCHEM_BOND_UDEF_STEREO_COUNT>
0

> <PUBCHEM_ISOTOPIC_ATOM_COUNT>
0

> <PUBCHEM_COMPONENT_COUNT>
1

> <PUBCHEM_CACTVS_TAUTO_COUNT>
15

> <PUBCHEM_CONFORMER_ID>
017C05B900000002

> <PUBCHEM_MMFF94_ENERGY>
48.9966

> <PUBCHEM_FEATURE_SELFOVERLAP>
56.099

> <PUBCHEM_SHAPE_FINGERPRINT>
10319926 262 18270099298310125096
10411042 1 17906456880683861135
10646746 165 18343019986926097800
11315181 36 18187366580090229524
11582403 64 17197650950138641112
11725454 13 17128133266662931280
12107183 9 18045775685933097930
12236239 1 17676487285024865974
12390115 104 18199765669073338337
12403259 415 17917712422519086576
12500047 106 18412261714542196188
12553582 1 18120941865066880611
12788726 201 18191320470367669267
13140716 1 18122632914361454387
13583140 156 17917419935304173190
13878862 14 16968017736742295137
14178342 30 18409445864889045370
14294032 229 18263081033933631941
14508225 48 18195236939919029101
15042514 8 18193284207073634075
16752209 62 18336540598931192199
16945 1 18410859901636250207
1741750 31 18341050705555238113
18186145 218 17988933227688403136
19049666 15 17988935426743281094
200 152 16443618099428871814
20510252 161 18343305906977721281
20645477 56 18411987935767500393
21033648 29 17418084430505303192
21065201 7 18412263948046710626
22149856 69 17831035537997684305
22182313 1 18265348213787287807
23175994 123 17060070271688950088
2334 1 18337957766841210383
23402539 116 18340766047912913431
23419403 2 17128997650854480105
23493267 7 18272090474654197360
23557571 272 18201445791575802844
23559900 14 18200319814997514934
23598291 2 17676779768060785684
2748010 2 18193290589594859463
283562 15 18411419544586348419
3091708 16 9127942670149470115
350125 39 18194132824044288515
4214541 1 18410578392384197356
469060 322 18336847354765876889
5104073 3 18409729543848494376
5265222 85 18198920274424707198
559249 180 18335420119995945518
573450 72 18260823809169231466
57527295 17 17131267926863260676
59755656 215 18341899567239626943
59755656 520 18129390302214268297
602551 16 18411982503203336410
6049 1 17988927829051766232
633830 44 17771348569623855885
7615 1 17894911875363194644
77492 1 17676205801363184204
81228 2 18338525256442967515
84936 182 17623565350680951297
9862522 239 17823409405853686125

> <PUBCHEM_SHAPE_MULTIPOLES>
407.34
9.14
3.08
1.24
10.58
0.87
-0.16
-3.13
-0.08
-5.48
-0.04
1
-0.6
0.07

> <PUBCHEM_SHAPE_SELFOVERLAP>
878.611

> <PUBCHEM_SHAPE_VOLUME>
232.1

> <PUBCHEM_COORDINATE_TYPE>
2
5
10

$$$$
