49830416
  -OEChem-10052115183D

 80 86  0     0  0  0  0  0  0999 V2000
    3.8207   -3.8217    1.3925 S   0  0  0  0  0  0  0  0  0  0  0  0
    6.4793    0.6112    2.9846 O   0  0  0  0  0  0  0  0  0  0  0  0
   -6.1371   -1.3582    0.4397 O   0  0  0  0  0  0  0  0  0  0  0  0
    4.9502    1.9737    1.0599 N   0  0  0  0  0  0  0  0  0  0  0  0
    2.5154   -2.4717   -0.3541 N   0  0  0  0  0  0  0  0  0  0  0  0
   -1.1356   -0.8432    1.3831 N   0  0  0  0  0  0  0  0  0  0  0  0
    1.0552   -3.5494    0.9486 N   0  0  0  0  0  0  0  0  0  0  0  0
    1.8982    2.1356   -2.7050 N   0  0  0  0  0  0  0  0  0  0  0  0
   -3.9412   -0.8299    1.0965 N   0  0  0  0  0  0  0  0  0  0  0  0
    1.5821    0.0003   -1.7930 N   0  0  0  0  0  0  0  0  0  0  0  0
    0.7621    0.5416   -3.9935 N   0  0  0  0  0  0  0  0  0  0  0  0
    4.3526    0.8903    1.8524 C   0  0  0  0  0  0  0  0  0  0  0  0
    6.1238    2.6146    1.6631 C   0  0  0  0  0  0  0  0  0  0  0  0
    5.4391   -0.0827    2.2963 C   0  0  0  0  0  0  0  0  0  0  0  0
    7.1157    1.5497    2.1178 C   0  0  0  0  0  0  0  0  0  0  0  0
    4.1168    2.7054    0.2076 C   0  0  0  0  0  0  0  0  0  0  0  0
    0.4032   -2.8024   -0.0151 C   0  0  0  0  0  0  0  0  0  0  0  0
    1.2904   -2.1246   -0.8355 C   0  0  0  0  0  0  0  0  0  0  0  0
   -1.0247   -2.7548   -0.1270 C   0  0  0  0  0  0  0  0  0  0  0  0
   -1.7762   -1.7986    0.5559 C   0  0  0  0  0  0  0  0  0  0  0  0
    3.4277    2.0589   -0.8184 C   0  0  0  0  0  0  0  0  0  0  0  0
    3.9745    4.0818    0.3842 C   0  0  0  0  0  0  0  0  0  0  0  0
    2.3127   -3.3130    0.6971 C   0  0  0  0  0  0  0  0  0  0  0  0
   -3.1646   -1.7789    0.4249 C   0  0  0  0  0  0  0  0  0  0  0  0
    2.5963    2.7887   -1.6679 C   0  0  0  0  0  0  0  0  0  0  0  0
    1.0823   -1.2427   -1.9530 C   0  0  0  0  0  0  0  0  0  0  0  0
   -1.6617   -3.6914   -0.9412 C   0  0  0  0  0  0  0  0  0  0  0  0
    3.1431    4.8115   -0.4653 C   0  0  0  0  0  0  0  0  0  0  0  0
    3.8291   -2.1974   -0.6510 C   0  0  0  0  0  0  0  0  0  0  0  0
    2.4540    4.1649   -1.4914 C   0  0  0  0  0  0  0  0  0  0  0  0
   -3.8017   -2.7155   -0.3891 C   0  0  0  0  0  0  0  0  0  0  0  0
   -3.0501   -3.6717   -1.0722 C   0  0  0  0  0  0  0  0  0  0  0  0
    1.3894    0.8289   -2.8369 C   0  0  0  0  0  0  0  0  0  0  0  0
    0.4191   -1.6621   -3.0882 C   0  0  0  0  0  0  0  0  0  0  0  0
    4.6654   -2.8370    0.1843 C   0  0  0  0  0  0  0  0  0  0  0  0
   -0.7052    0.4232    0.8332 C   0  0  0  0  0  0  0  0  0  0  0  0
   -0.9148   -1.1253    2.7842 C   0  0  0  0  0  0  0  0  0  0  0  0
   -5.3355   -0.6758    1.0700 C   0  0  0  0  0  0  0  0  0  0  0  0
    0.2873   -0.7178   -4.0859 C   0  0  0  0  0  0  0  0  0  0  0  0
   -5.7719    0.4866    1.9477 C   0  0  0  0  0  0  0  0  0  0  0  0
   -6.5016    1.5666    1.1925 C   0  0  0  0  0  0  0  0  0  0  0  0
   -5.7902    2.6242    0.6261 C   0  0  0  0  0  0  0  0  0  0  0  0
   -7.8889    1.5087    1.0597 C   0  0  0  0  0  0  0  0  0  0  0  0
   -6.4662    3.6244   -0.0730 C   0  0  0  0  0  0  0  0  0  0  0  0
   -8.5648    2.5086    0.3606 C   0  0  0  0  0  0  0  0  0  0  0  0
   -7.8535    3.5665   -0.2058 C   0  0  0  0  0  0  0  0  0  0  0  0
    3.8680    1.3307    2.7327 H   0  0  0  0  0  0  0  0  0  0  0  0
    3.5893    0.3388    1.2934 H   0  0  0  0  0  0  0  0  0  0  0  0
    6.6255    3.2789    0.9497 H   0  0  0  0  0  0  0  0  0  0  0  0
    5.8059    3.2057    2.5308 H   0  0  0  0  0  0  0  0  0  0  0  0
    5.8745   -0.6101    1.4417 H   0  0  0  0  0  0  0  0  0  0  0  0
    5.0208   -0.8288    2.9788 H   0  0  0  0  0  0  0  0  0  0  0  0
    7.9367    2.0163    2.6714 H   0  0  0  0  0  0  0  0  0  0  0  0
    7.5518    1.0188    1.2629 H   0  0  0  0  0  0  0  0  0  0  0  0
    3.6007    0.9989   -0.9717 H   0  0  0  0  0  0  0  0  0  0  0  0
    4.4846    4.6154    1.1810 H   0  0  0  0  0  0  0  0  0  0  0  0
   -1.0927   -4.4460   -1.4796 H   0  0  0  0  0  0  0  0  0  0  0  0
    4.1041   -1.5466   -1.4669 H   0  0  0  0  0  0  0  0  0  0  0  0
    3.0291    5.8826   -0.3260 H   0  0  0  0  0  0  0  0  0  0  0  0
    1.8077    4.7447   -2.1454 H   0  0  0  0  0  0  0  0  0  0  0  0
   -4.8684   -2.7729   -0.5476 H   0  0  0  0  0  0  0  0  0  0  0  0
   -3.5449   -4.4018   -1.7062 H   0  0  0  0  0  0  0  0  0  0  0  0
    1.6052    2.7465   -3.4616 H   0  0  0  0  0  0  0  0  0  0  0  0
   -3.4102   -0.1762    1.6667 H   0  0  0  0  0  0  0  0  0  0  0  0
    0.0325   -2.6650   -3.2149 H   0  0  0  0  0  0  0  0  0  0  0  0
    5.7443   -2.7852    0.1478 H   0  0  0  0  0  0  0  0  0  0  0  0
   -1.1500    1.2507    1.3960 H   0  0  0  0  0  0  0  0  0  0  0  0
   -1.0006    0.5414   -0.2152 H   0  0  0  0  0  0  0  0  0  0  0  0
    0.3841    0.5150    0.8949 H   0  0  0  0  0  0  0  0  0  0  0  0
   -0.3253   -0.3345    3.2608 H   0  0  0  0  0  0  0  0  0  0  0  0
   -0.3720   -2.0664    2.9185 H   0  0  0  0  0  0  0  0  0  0  0  0
   -1.8674   -1.1981    3.3193 H   0  0  0  0  0  0  0  0  0  0  0  0
   -0.2163   -0.9561   -5.0167 H   0  0  0  0  0  0  0  0  0  0  0  0
   -6.4207    0.0744    2.7315 H   0  0  0  0  0  0  0  0  0  0  0  0
   -4.9242    0.9305    2.4835 H   0  0  0  0  0  0  0  0  0  0  0  0
   -4.7089    2.6785    0.7213 H   0  0  0  0  0  0  0  0  0  0  0  0
   -8.4543    0.6890    1.4950 H   0  0  0  0  0  0  0  0  0  0  0  0
   -5.9123    4.4477   -0.5145 H   0  0  0  0  0  0  0  0  0  0  0  0
   -9.6450    2.4635    0.2567 H   0  0  0  0  0  0  0  0  0  0  0  0
   -8.3799    4.3449   -0.7504 H   0  0  0  0  0  0  0  0  0  0  0  0
  1 23  1  0  0  0  0
  1 35  1  0  0  0  0
  2 14  1  0  0  0  0
  2 15  1  0  0  0  0
  3 38  2  0  0  0  0
  4 12  1  0  0  0  0
  4 13  1  0  0  0  0
  4 16  1  0  0  0  0
  5 18  1  0  0  0  0
  5 23  1  0  0  0  0
  5 29  1  0  0  0  0
  6 20  1  0  0  0  0
  6 36  1  0  0  0  0
  6 37  1  0  0  0  0
  7 17  1  0  0  0  0
  7 23  2  0  0  0  0
  8 25  1  0  0  0  0
  8 33  1  0  0  0  0
  8 63  1  0  0  0  0
  9 24  1  0  0  0  0
  9 38  1  0  0  0  0
  9 64  1  0  0  0  0
 10 26  2  0  0  0  0
 10 33  1  0  0  0  0
 11 33  2  0  0  0  0
 11 39  1  0  0  0  0
 12 14  1  0  0  0  0
 12 47  1  0  0  0  0
 12 48  1  0  0  0  0
 13 15  1  0  0  0  0
 13 49  1  0  0  0  0
 13 50  1  0  0  0  0
 14 51  1  0  0  0  0
 14 52  1  0  0  0  0
 15 53  1  0  0  0  0
 15 54  1  0  0  0  0
 16 21  1  0  0  0  0
 16 22  2  0  0  0  0
 17 18  2  0  0  0  0
 17 19  1  0  0  0  0
 18 26  1  0  0  0  0
 19 20  2  0  0  0  0
 19 27  1  0  0  0  0
 20 24  1  0  0  0  0
 21 25  2  0  0  0  0
 21 55  1  0  0  0  0
 22 28  1  0  0  0  0
 22 56  1  0  0  0  0
 24 31  2  0  0  0  0
 25 30  1  0  0  0  0
 26 34  1  0  0  0  0
 27 32  2  0  0  0  0
 27 57  1  0  0  0  0
 28 30  2  0  0  0  0
 28 59  1  0  0  0  0
 29 35  2  0  0  0  0
 29 58  1  0  0  0  0
 30 60  1  0  0  0  0
 31 32  1  0  0  0  0
 31 61  1  0  0  0  0
 32 62  1  0  0  0  0
 34 39  2  0  0  0  0
 34 65  1  0  0  0  0
 35 66  1  0  0  0  0
 36 67  1  0  0  0  0
 36 68  1  0  0  0  0
 36 69  1  0  0  0  0
 37 70  1  0  0  0  0
 37 71  1  0  0  0  0
 37 72  1  0  0  0  0
 38 40  1  0  0  0  0
 39 73  1  0  0  0  0
 40 41  1  0  0  0  0
 40 74  1  0  0  0  0
 40 75  1  0  0  0  0
 41 42  2  0  0  0  0
 41 43  1  0  0  0  0
 42 44  1  0  0  0  0
 42 76  1  0  0  0  0
 43 45  2  0  0  0  0
 43 77  1  0  0  0  0
 44 46  2  0  0  0  0
 44 78  1  0  0  0  0
 45 46  1  0  0  0  0
 45 79  1  0  0  0  0
 46 80  1  0  0  0  0
M  END
> <PUBCHEM_COMPOUND_CID>
49830416

> <PUBCHEM_CONFORMER_RMSD>
1.4

> <PUBCHEM_CONFORMER_DIVERSEORDER>
6
182
169
179
56
68
81
50
153
39
147
51
163
173
108
146
139
98
120
161
118
142
91
171
76
23
148
160
64
165
75
150
125
65
137
1
110
83
124
104
119
86
77
114
154
73
46
82
145
67
2
69
134
183
48
180
7
36
47
22
181
72
19
80
100
106
84
85
88
93
107
158
113
151
53
15
130
24
102
20
35
40
26
54
185
184
135
167
175
144
29
41
136
117
57
89
157
30
131
18
140
74
126
159
70
96
143
27
112
103
8
97
176
132
62
90
11
49
12
152
37
121
129
58
79
34
43
63
172
178
61
166
55
105
5
123
177
52
95
168
164
10
44
60
138
127
141
133
94
92
162
78
128
4
174
45
38
99
16
9
101
17
149
71
116
155
3
33
59
31
13
21
170
14
87
115
109
25
111
156
122
42
66
28
32

> <PUBCHEM_MMFF94_PARTIAL_CHARGES>
64
1 -0.16
10 -0.62
11 -0.62
12 0.37
13 0.37
14 0.28
15 0.28
16 0.1
17 0.17
18 -0.2
19 0.05
2 -0.56
20 0.1
21 -0.15
22 -0.15
23 0.24
24 0.12
25 0.1
26 0.36
27 -0.15
28 -0.15
29 -0.18
3 -0.57
30 -0.15
31 -0.15
32 -0.15
33 0.72
34 -0.15
35 -0.05
36 0.37
37 0.37
38 0.57
39 0.16
4 -0.84
40 0.2
41 -0.14
42 -0.15
43 -0.15
44 -0.15
45 -0.15
46 -0.15
5 0.33
55 0.15
56 0.15
57 0.15
58 0.15
59 0.15
6 -0.84
60 0.15
61 0.15
62 0.15
63 0.4
64 0.37
65 0.15
66 0.15
7 -0.57
73 0.15
76 0.15
77 0.15
78 0.15
79 0.15
8 -0.6
80 0.15
9 -0.55

> <PUBCHEM_EFFECTIVE_ROTOR_COUNT>
11.2

> <PUBCHEM_PHARMACOPHORE_FEATURES>
16
1 10 acceptor
1 2 acceptor
1 3 acceptor
1 4 cation
1 6 cation
1 8 donor
1 9 donor
3 5 7 23 cation
4 8 10 11 33 cation
5 1 5 23 29 35 rings
5 5 7 17 18 23 rings
6 10 11 26 33 34 39 rings
6 16 21 22 25 28 30 rings
6 19 20 24 27 31 32 rings
6 2 4 12 13 14 15 rings
6 41 42 43 44 45 46 rings

> <PUBCHEM_HEAVY_ATOM_COUNT>
46

> <PUBCHEM_ATOM_DEF_STEREO_COUNT>
0

> <PUBCHEM_ATOM_UDEF_STEREO_COUNT>
0

> <PUBCHEM_BOND_DEF_STEREO_COUNT>
0

> <PUBCHEM_BOND_UDEF_STEREO_COUNT>
0

> <PUBCHEM_ISOTOPIC_ATOM_COUNT>
0

> <PUBCHEM_COMPONENT_COUNT>
1

> <PUBCHEM_CACTVS_TAUTO_COUNT>
6

> <PUBCHEM_CONFORMER_ID>
02F85A1000000006

> <PUBCHEM_MMFF94_ENERGY>
182.0237

> <PUBCHEM_FEATURE_SELFOVERLAP>
81.454

> <PUBCHEM_SHAPE_FINGERPRINT>
10439779 11 18338802333415904309
10838868 217 18264480694496375605
11399510 152 17533532082186164107
12422481 6 17386273415307676495
12539747 167 17130122420800367935
12608794 3 17749380516063187355
13383668 362 18113910355458432091
15484559 13 14332540311927127539
15722582 15 17096915881509961901
15840311 113 18339361864712462795
20156587 77 13262680288106671933
21792938 324 17969491620152050220
4112364 45 18341623586074389011
4408954 64 14129058080864116221
508180 173 17976013944513482559
6201320 77 15864892245893123632
6677587 24 17704079465142645581
9555976 147 18118685667106445019

> <PUBCHEM_SHAPE_MULTIPOLES>
898.92
18.59
6.63
3.21
31.75
2.18
2.63
20.59
-13.77
-2.4
0.73
-3.45
0.18
-0.57

> <PUBCHEM_SHAPE_SELFOVERLAP>
1971.738

> <PUBCHEM_SHAPE_VOLUME>
488.8

> <PUBCHEM_COORDINATE_TYPE>
2
5
10

$$$$
