22607792
  -OEChem-10052115183D

 49 53  0     1  0  0  0  0  0999 V2000
   -2.3829   -0.6040    0.2391 S   0  0  0  0  0  0  0  0  0  0  0  0
    2.3818    1.9136   -0.8514 O   0  0  0  0  0  0  0  0  0  0  0  0
    3.4781   -2.1413    1.6917 N   0  0  0  0  0  0  0  0  0  0  0  0
    5.2258    1.8423   -2.0805 N   0  0  0  0  0  0  0  0  0  0  0  0
    0.2956    3.2257    1.8521 N   0  0  0  0  0  0  0  0  0  0  0  0
   -6.2194   -1.5166   -0.5527 N   0  0  0  0  0  0  0  0  0  0  0  0
    4.1479   -0.2539   -1.3615 C   0  0  0  0  0  0  0  0  0  0  0  0
    4.6995    1.1256   -0.9133 C   0  0  2  0  0  0  0  0  0  0  0  0
    3.6390   -1.0961   -0.2599 C   0  0  0  0  0  0  0  0  0  0  0  0
    2.4233   -1.8357   -0.2503 C   0  0  0  0  0  0  0  0  0  0  0  0
    3.6522    2.0076   -0.2204 C   0  0  0  0  0  0  0  0  0  0  0  0
    2.3467   -2.4822    0.9853 C   0  0  0  0  0  0  0  0  0  0  0  0
    4.2651   -1.3038    0.9475 C   0  0  0  0  0  0  0  0  0  0  0  0
    1.3776   -2.0179   -1.1770 C   0  0  0  0  0  0  0  0  0  0  0  0
    1.2725   -3.3050    1.3418 C   0  0  0  0  0  0  0  0  0  0  0  0
    0.2967   -2.8382   -0.8340 C   0  0  0  0  0  0  0  0  0  0  0  0
    0.2469   -3.4708    0.4065 C   0  0  0  0  0  0  0  0  0  0  0  0
    1.2823    2.1254   -0.0612 C   0  0  0  0  0  0  0  0  0  0  0  0
   -1.0270    1.7331    0.4853 C   0  0  0  0  0  0  0  0  0  0  0  0
    0.0718    1.4977   -0.3338 C   0  0  0  0  0  0  0  0  0  0  0  0
   -2.2937    1.0984    0.2290 C   0  0  0  0  0  0  0  0  0  0  0  0
   -4.5553    0.7122   -0.2404 C   0  0  0  0  0  0  0  0  0  0  0  0
   -3.5122    1.6767   -0.0373 C   0  0  0  0  0  0  0  0  0  0  0  0
   -4.0686   -0.5923   -0.1159 C   0  0  0  0  0  0  0  0  0  0  0  0
    1.3416    2.9724    1.0338 C   0  0  0  0  0  0  0  0  0  0  0  0
   -0.8644    2.5977    1.5558 C   0  0  0  0  0  0  0  0  0  0  0  0
   -5.9221    0.8848   -0.5310 C   0  0  0  0  0  0  0  0  0  0  0  0
   -4.9095   -1.6955   -0.2743 C   0  0  0  0  0  0  0  0  0  0  0  0
   -6.6894   -0.2599   -0.6729 C   0  0  0  0  0  0  0  0  0  0  0  0
    3.3721   -0.1072   -2.1236 H   0  0  0  0  0  0  0  0  0  0  0  0
    4.9528   -0.8096   -1.8630 H   0  0  0  0  0  0  0  0  0  0  0  0
    5.5424    0.9858   -0.2253 H   0  0  0  0  0  0  0  0  0  0  0  0
    3.5905    1.6643    0.8216 H   0  0  0  0  0  0  0  0  0  0  0  0
    3.9755    3.0564   -0.2020 H   0  0  0  0  0  0  0  0  0  0  0  0
    5.1999   -0.9368    1.3477 H   0  0  0  0  0  0  0  0  0  0  0  0
    3.6957   -2.4633    2.6245 H   0  0  0  0  0  0  0  0  0  0  0  0
    1.3980   -1.5336   -2.1489 H   0  0  0  0  0  0  0  0  0  0  0  0
    5.6601    2.7147   -1.7817 H   0  0  0  0  0  0  0  0  0  0  0  0
    5.9632    1.2902   -2.5168 H   0  0  0  0  0  0  0  0  0  0  0  0
    1.2326   -3.7977    2.3074 H   0  0  0  0  0  0  0  0  0  0  0  0
   -0.5114   -2.9844   -1.5460 H   0  0  0  0  0  0  0  0  0  0  0  0
   -0.6023   -4.1035    0.6519 H   0  0  0  0  0  0  0  0  0  0  0  0
   -0.0013    0.8393   -1.1961 H   0  0  0  0  0  0  0  0  0  0  0  0
   -3.6653    2.7484   -0.0891 H   0  0  0  0  0  0  0  0  0  0  0  0
    2.2378    3.5207    1.3037 H   0  0  0  0  0  0  0  0  0  0  0  0
   -1.6809    2.8233    2.2360 H   0  0  0  0  0  0  0  0  0  0  0  0
   -6.3622    1.8702   -0.6403 H   0  0  0  0  0  0  0  0  0  0  0  0
   -4.5660   -2.7189   -0.1848 H   0  0  0  0  0  0  0  0  0  0  0  0
   -7.7490   -0.1861   -0.8970 H   0  0  0  0  0  0  0  0  0  0  0  0
  1 21  1  0  0  0  0
  1 24  1  0  0  0  0
  2 11  1  0  0  0  0
  2 18  1  0  0  0  0
  3 12  1  0  0  0  0
  3 13  1  0  0  0  0
  3 36  1  0  0  0  0
  4  8  1  0  0  0  0
  4 38  1  0  0  0  0
  4 39  1  0  0  0  0
  5 25  1  0  0  0  0
  5 26  2  0  0  0  0
  6 28  2  0  0  0  0
  6 29  1  0  0  0  0
  7  8  1  0  0  0  0
  7  9  1  0  0  0  0
  7 30  1  0  0  0  0
  7 31  1  0  0  0  0
  8 11  1  0  0  0  0
  8 32  1  0  0  0  0
  9 10  1  0  0  0  0
  9 13  2  0  0  0  0
 10 12  1  0  0  0  0
 10 14  2  0  0  0  0
 11 33  1  0  0  0  0
 11 34  1  0  0  0  0
 12 15  2  0  0  0  0
 13 35  1  0  0  0  0
 14 16  1  0  0  0  0
 14 37  1  0  0  0  0
 15 17  1  0  0  0  0
 15 40  1  0  0  0  0
 16 17  2  0  0  0  0
 16 41  1  0  0  0  0
 17 42  1  0  0  0  0
 18 20  1  0  0  0  0
 18 25  2  0  0  0  0
 19 20  2  0  0  0  0
 19 21  1  0  0  0  0
 19 26  1  0  0  0  0
 20 43  1  0  0  0  0
 21 23  2  0  0  0  0
 22 23  1  0  0  0  0
 22 24  2  0  0  0  0
 22 27  1  0  0  0  0
 23 44  1  0  0  0  0
 24 28  1  0  0  0  0
 25 45  1  0  0  0  0
 26 46  1  0  0  0  0
 27 29  2  0  0  0  0
 27 47  1  0  0  0  0
 28 48  1  0  0  0  0
 29 49  1  0  0  0  0
M  END
> <PUBCHEM_COMPOUND_CID>
22607792

> <PUBCHEM_CONFORMER_RMSD>
1.2

> <PUBCHEM_CONFORMER_DIVERSEORDER>
1
35
69
23
179
97
29
113
187
57
15
157
134
155
72
44
175
74
142
67
151
56
26
169
198
89
55
25
79
191
195
168
149
192
88
43
38
96
70
129
61
78
178
103
7
66
196
172
160
161
81
64
60
104
37
39
71
144
84
73
12
166
188
75
183
106
98
115
40
109
102
121
30
193
28
107
94
112
164
85
31
33
180
122
117
24
93
111
185
11
170
136
158
16
135
83
124
8
181
46
143
21
52
80
13
140
32
130
154
54
87
120
173
145
128
14
63
132
41
9
18
48
186
108
163
19
53
51
17
90
194
92
27
146
77
189
82
5
197
139
42
6
95
22
20
123
174
177
10
126
138
150
59
167
184
3
162
34
76
125
101
86
110
47
119
114
118
36
182
190
50
133
153
105
156
171
152
131
137
99
4
49
65
2
91
176
127
58
116
148
45
159
147
165
141
62
68
100

> <PUBCHEM_MMFF94_PARTIAL_CHARGES>
42
1 -0.08
11 0.28
12 -0.15
13 -0.3
14 -0.15
15 -0.15
16 -0.15
17 -0.15
18 0.08
19 0.05
2 -0.36
20 -0.15
21 -0.01
23 -0.15
24 0.04
25 0.16
26 0.16
27 -0.15
28 0.16
29 0.16
3 0.03
35 0.15
36 0.27
37 0.15
38 0.36
39 0.36
4 -0.99
40 0.15
41 0.15
42 0.15
43 0.15
44 0.15
45 0.15
46 0.15
47 0.15
48 0.15
49 0.15
5 -0.62
6 -0.62
7 0.18
8 0.27
9 -0.18

> <PUBCHEM_EFFECTIVE_ROTOR_COUNT>
6

> <PUBCHEM_PHARMACOPHORE_FEATURES>
12
1 2 acceptor
1 3 cation
1 3 donor
1 4 cation
1 4 donor
1 5 acceptor
1 6 acceptor
5 1 21 22 23 24 rings
5 3 9 10 12 13 rings
6 10 12 14 15 16 17 rings
6 5 18 19 20 25 26 rings
6 6 22 24 27 28 29 rings

> <PUBCHEM_HEAVY_ATOM_COUNT>
29

> <PUBCHEM_ATOM_DEF_STEREO_COUNT>
0

> <PUBCHEM_ATOM_UDEF_STEREO_COUNT>
1

> <PUBCHEM_BOND_DEF_STEREO_COUNT>
0

> <PUBCHEM_BOND_UDEF_STEREO_COUNT>
0

> <PUBCHEM_ISOTOPIC_ATOM_COUNT>
0

> <PUBCHEM_COMPONENT_COUNT>
1

> <PUBCHEM_CACTVS_TAUTO_COUNT>
1

> <PUBCHEM_CONFORMER_ID>
0158F7B000000001

> <PUBCHEM_MMFF94_ENERGY>
68.6479

> <PUBCHEM_FEATURE_SELFOVERLAP>
61.054

> <PUBCHEM_SHAPE_FINGERPRINT>
10290309 65 14520033011898906438
10764073 3 10766146680298311718
1100329 8 18339916112613827138
11014199 57 17690842255287073482
11135609 187 18334579074535415829
12166972 35 17896037642036678798
12788726 201 18201167576347466152
1361 2 18042131014808447804
14068700 675 18118961391712724874
14117953 113 17617371788479737095
14178342 30 17837768925044370176
14787075 74 18410860970708671215
14931854 50 18339374032138294516
15001296 14 17914034655035258591
15183329 4 18342176636249947597
15250474 111 18338515227673641529
15927050 60 17839451525220672956
15968369 153 17842267357768632583
16114785 44 15617467280554022072
17134984 74 18334574693889650943
17138139 8 18199186363752130516
17492 54 18336277820331859596
19026451 147 18337666412975749050
19319366 153 18334289885850286630
20028762 73 18269554953823519110
20715895 44 17468184553750662941
21133410 52 18116983400581381570
21421861 104 18124053246692166249
21703447 108 17988634242347208241
22393880 68 18338242557105406252
23559900 14 17769941177454600903
3004659 81 18335984190128456372
3298306 158 18339077224080636339
338550 245 18265327485778978871
3680242 22 18264489494800014435
404807 78 17606413304516751651
4573279 79 15433372350478794890
463206 1 18270676588716410599
484989 97 18263939880662193506
513532 50 17775282815817382546
5171179 24 16980402068860209816
5265222 85 17616813675050822952
5776283 40 17834123317843722020
59755656 215 18335698386573680709
6669772 16 18055622073751600856
9896288 288 17556296168995284584

> <PUBCHEM_SHAPE_MULTIPOLES>
574.86
12.53
4.38
1.41
15.91
0.72
0.14
0.92
-4.65
-2.88
1.48
-1.55
-0.25
-1.79

> <PUBCHEM_SHAPE_SELFOVERLAP>
1269.699

> <PUBCHEM_SHAPE_VOLUME>
311.6

> <PUBCHEM_COORDINATE_TYPE>
2
5
10

$$$$
