49830312
  -OEChem-10052115193D

 56 59  0     0  0  0  0  0  0999 V2000
    4.0514   -4.6932    0.7404 Cl  0  0  0  0  0  0  0  0  0  0  0  0
   -5.8434   -0.8105    1.3488 O   0  0  0  0  0  0  0  0  0  0  0  0
   -4.3596   -0.5802   -0.4231 N   0  0  0  0  0  0  0  0  0  0  0  0
    0.0532   -2.2836   -0.7760 N   0  0  0  0  0  0  0  0  0  0  0  0
    1.8378   -0.9433   -0.1412 N   0  0  0  0  0  0  0  0  0  0  0  0
    1.9825   -3.3470   -0.0479 N   0  0  0  0  0  0  0  0  0  0  0  0
   -6.1231    2.0622    0.8018 N   0  0  0  0  0  0  0  0  0  0  0  0
    4.8917    2.0526    1.3753 N   0  0  0  0  0  0  0  0  0  0  0  0
    4.2158    3.9233    0.0161 N   0  0  0  0  0  0  0  0  0  0  0  0
   -3.5350   -1.7311   -0.1328 C   0  0  0  0  0  0  0  0  0  0  0  0
   -0.7687   -1.1328   -1.0960 C   0  0  0  0  0  0  0  0  0  0  0  0
   -2.4117   -1.3679    0.8408 C   0  0  0  0  0  0  0  0  0  0  0  0
   -2.9890   -2.3620   -1.4163 C   0  0  0  0  0  0  0  0  0  0  0  0
   -1.3210   -0.5140    0.1898 C   0  0  0  0  0  0  0  0  0  0  0  0
   -1.8817   -1.5294   -2.0690 C   0  0  0  0  0  0  0  0  0  0  0  0
   -5.4533   -0.2134    0.3479 C   0  0  0  0  0  0  0  0  0  0  0  0
    1.3472   -2.1871   -0.3021 C   0  0  0  0  0  0  0  0  0  0  0  0
   -6.1499    1.0123   -0.2066 C   0  0  0  0  0  0  0  0  0  0  0  0
    3.1025   -0.8860    0.3251 C   0  0  0  0  0  0  0  0  0  0  0  0
    3.6439    0.4307    0.5015 C   0  0  0  0  0  0  0  0  0  0  0  0
    3.2428   -3.2161    0.4157 C   0  0  0  0  0  0  0  0  0  0  0  0
    3.8607   -1.9998    0.6237 C   0  0  0  0  0  0  0  0  0  0  0  0
   -4.8033    2.6951    0.8554 C   0  0  0  0  0  0  0  0  0  0  0  0
   -7.1548    3.0661    0.5315 C   0  0  0  0  0  0  0  0  0  0  0  0
    3.3641    1.6339   -0.1991 C   0  0  0  0  0  0  0  0  0  0  0  0
    4.5875    0.7189    1.4638 C   0  0  0  0  0  0  0  0  0  0  0  0
    4.1581    2.6254    0.3698 C   0  0  0  0  0  0  0  0  0  0  0  0
    2.5240    2.0083   -1.2604 C   0  0  0  0  0  0  0  0  0  0  0  0
    2.5444    3.3411   -1.6673 C   0  0  0  0  0  0  0  0  0  0  0  0
    3.3869    4.2273   -1.0097 C   0  0  0  0  0  0  0  0  0  0  0  0
   -4.1804   -2.4703    0.3583 H   0  0  0  0  0  0  0  0  0  0  0  0
   -0.1532   -0.3859   -1.6140 H   0  0  0  0  0  0  0  0  0  0  0  0
   -1.9592   -2.2914    1.2236 H   0  0  0  0  0  0  0  0  0  0  0  0
   -2.8148   -0.8345    1.7103 H   0  0  0  0  0  0  0  0  0  0  0  0
   -3.7997   -2.5128   -2.1396 H   0  0  0  0  0  0  0  0  0  0  0  0
   -2.5936   -3.3578   -1.1805 H   0  0  0  0  0  0  0  0  0  0  0  0
   -0.5278   -0.3319    0.9235 H   0  0  0  0  0  0  0  0  0  0  0  0
   -1.7438    0.4703   -0.0503 H   0  0  0  0  0  0  0  0  0  0  0  0
   -2.3250   -0.6174   -2.4882 H   0  0  0  0  0  0  0  0  0  0  0  0
   -1.4648   -2.0878   -2.9164 H   0  0  0  0  0  0  0  0  0  0  0  0
   -4.0816    0.0167   -1.1961 H   0  0  0  0  0  0  0  0  0  0  0  0
   -0.3355   -3.2155   -0.8606 H   0  0  0  0  0  0  0  0  0  0  0  0
   -5.7275    1.3406   -1.1636 H   0  0  0  0  0  0  0  0  0  0  0  0
   -7.1797    0.6903   -0.4109 H   0  0  0  0  0  0  0  0  0  0  0  0
    4.8810   -1.9486    0.9849 H   0  0  0  0  0  0  0  0  0  0  0  0
   -4.5264    3.1588   -0.0985 H   0  0  0  0  0  0  0  0  0  0  0  0
   -4.7835    3.4703    1.6299 H   0  0  0  0  0  0  0  0  0  0  0  0
   -4.0262    1.9724    1.1267 H   0  0  0  0  0  0  0  0  0  0  0  0
   -7.1520    3.8398    1.3073 H   0  0  0  0  0  0  0  0  0  0  0  0
   -7.0137    3.5508   -0.4414 H   0  0  0  0  0  0  0  0  0  0  0  0
   -8.1508    2.6096    0.5498 H   0  0  0  0  0  0  0  0  0  0  0  0
    5.0721    0.1115    2.2165 H   0  0  0  0  0  0  0  0  0  0  0  0
    5.5539    2.5402    1.9626 H   0  0  0  0  0  0  0  0  0  0  0  0
    1.8778    1.2952   -1.7611 H   0  0  0  0  0  0  0  0  0  0  0  0
    1.9141    3.6783   -2.4832 H   0  0  0  0  0  0  0  0  0  0  0  0
    3.4155    5.2703   -1.3141 H   0  0  0  0  0  0  0  0  0  0  0  0
  1 21  1  0  0  0  0
  2 16  2  0  0  0  0
  3 10  1  0  0  0  0
  3 16  1  0  0  0  0
  3 41  1  0  0  0  0
  4 11  1  0  0  0  0
  4 17  1  0  0  0  0
  4 42  1  0  0  0  0
  5 17  2  0  0  0  0
  5 19  1  0  0  0  0
  6 17  1  0  0  0  0
  6 21  2  0  0  0  0
  7 18  1  0  0  0  0
  7 23  1  0  0  0  0
  7 24  1  0  0  0  0
  8 26  1  0  0  0  0
  8 27  1  0  0  0  0
  8 53  1  0  0  0  0
  9 27  1  0  0  0  0
  9 30  2  0  0  0  0
 10 12  1  0  0  0  0
 10 13  1  0  0  0  0
 10 31  1  0  0  0  0
 11 14  1  0  0  0  0
 11 15  1  0  0  0  0
 11 32  1  0  0  0  0
 12 14  1  0  0  0  0
 12 33  1  0  0  0  0
 12 34  1  0  0  0  0
 13 15  1  0  0  0  0
 13 35  1  0  0  0  0
 13 36  1  0  0  0  0
 14 37  1  0  0  0  0
 14 38  1  0  0  0  0
 15 39  1  0  0  0  0
 15 40  1  0  0  0  0
 16 18  1  0  0  0  0
 18 43  1  0  0  0  0
 18 44  1  0  0  0  0
 19 20  1  0  0  0  0
 19 22  2  0  0  0  0
 20 25  1  0  0  0  0
 20 26  2  0  0  0  0
 21 22  1  0  0  0  0
 22 45  1  0  0  0  0
 23 46  1  0  0  0  0
 23 47  1  0  0  0  0
 23 48  1  0  0  0  0
 24 49  1  0  0  0  0
 24 50  1  0  0  0  0
 24 51  1  0  0  0  0
 25 27  2  0  0  0  0
 25 28  1  0  0  0  0
 26 52  1  0  0  0  0
 28 29  2  0  0  0  0
 28 54  1  0  0  0  0
 29 30  1  0  0  0  0
 29 55  1  0  0  0  0
 30 56  1  0  0  0  0
M  END
> <PUBCHEM_COMPOUND_CID>
49830312

> <PUBCHEM_CONFORMER_RMSD>
1

> <PUBCHEM_CONFORMER_DIVERSEORDER>
1
37
147
49
132
57
125
138
143
42
73
65
116
22
10
69
98
152
142
99
52
32
60
102
106
77
85
16
135
114
51
105
54
117
112
141
74
97
118
61
39
35
79
144
104
44
55
91
133
87
145
75
11
41
67
24
56
130
121
63
58
90
110
20
122
107
113
40
34
134
95
26
17
21
80
136
28
53
25
76
83
72
62
128
36
108
140
68
123
59
46
120
127
27
93
137
30
66
119
103
96
64
29
19
131
48
82
15
150
23
109
89
5
139
12
111
149
47
78
146
13
6
100
50
9
81
3
124
18
43
38
70
129
101
126
86
94
92
151
71
2
115
33
7
45
84
88
148
8
4
14
31

> <PUBCHEM_MMFF94_PARTIAL_CHARGES>
33
1 -0.18
10 0.3
11 0.37
16 0.57
17 0.72
18 0.33
19 0.36
2 -0.57
20 -0.05
21 0.49
22 -0.15
23 0.27
24 0.27
26 -0.3
27 0.11
28 -0.15
29 -0.15
3 -0.73
30 0.16
4 -0.87
41 0.37
42 0.4
45 0.15
5 -0.62
52 0.15
53 0.27
54 0.15
55 0.15
56 0.15
6 -0.62
7 -0.81
8 0.03
9 -0.57

> <PUBCHEM_EFFECTIVE_ROTOR_COUNT>
8.2

> <PUBCHEM_PHARMACOPHORE_FEATURES>
13
1 2 acceptor
1 3 donor
1 4 donor
1 6 acceptor
1 7 cation
1 8 cation
1 8 donor
1 9 acceptor
4 4 5 6 17 cation
5 8 20 25 26 27 rings
6 10 11 12 13 14 15 rings
6 5 6 17 19 21 22 rings
6 9 25 27 28 29 30 rings

> <PUBCHEM_HEAVY_ATOM_COUNT>
30

> <PUBCHEM_ATOM_DEF_STEREO_COUNT>
0

> <PUBCHEM_ATOM_UDEF_STEREO_COUNT>
0

> <PUBCHEM_BOND_DEF_STEREO_COUNT>
0

> <PUBCHEM_BOND_UDEF_STEREO_COUNT>
0

> <PUBCHEM_ISOTOPIC_ATOM_COUNT>
0

> <PUBCHEM_COMPONENT_COUNT>
1

> <PUBCHEM_CACTVS_TAUTO_COUNT>
32

> <PUBCHEM_CONFORMER_ID>
02F859A800000001

> <PUBCHEM_MMFF94_ENERGY>
64.6406

> <PUBCHEM_FEATURE_SELFOVERLAP>
66.085

> <PUBCHEM_SHAPE_FINGERPRINT>
100830 2 18341342192375775857
10763959 59 18128545876972926135
10838868 217 17975124350045957461
10917259 69 18048322434433060420
10937287 8 17976823404589292558
11756154 67 17906175049314022442
12107183 9 18196649593149057891
12422481 6 18187083928076689605
12633257 1 17023740251011629034
14114211 80 17826807124738469452
14251764 38 18269001882310345481
14251764 75 17901673992091319140
14784336 7 17116342422126538031
14790565 3 18123190366139856812
15439362 3 18267871765172574348
15840311 113 18335703785627322053
17810953 82 18411139142818698748
19302320 297 18053113818053156665
20567600 9 18337121141365836748
20715895 44 18342456985464802057
21302155 148 18343587373786840909
21315764 268 18191024509220773277
21792938 324 17977359674358878584
22122407 14 18339090315309747043
23559900 14 18335985276834914195
245318 6 18262248836089401093
24771293 8 18199164314477352922
2838139 119 18196365919723617373
3103668 31 17545326272533722478
3493558 16 18127135169521850929
373842 8 18410295783673731745
397830 11 18114473353073563043
4144715 1 18260840302034013859
4409770 3 17184463219345615078
474 4 18192701461789726534
5104073 3 18333732395290597667
550186 72 17907298011795537495
57724786 102 18411696569665645607
6058803 2 18199730579006596135

> <PUBCHEM_SHAPE_MULTIPOLES>
578.52
15.58
5.97
1.4
26.48
1.44
0.38
10.37
-5.86
-7.59
0.5
0.02
0.21
-2.67

> <PUBCHEM_SHAPE_SELFOVERLAP>
1234.533

> <PUBCHEM_SHAPE_VOLUME>
322.6

> <PUBCHEM_COORDINATE_TYPE>
2
5
10

$$$$
