49830716
  -OEChem-10052115183D

 42 45  0     1  0  0  0  0  0999 V2000
   -4.5882   -0.1721    0.0785 O   0  0  0  0  0  0  0  0  0  0  0  0
   -2.5721    0.8669   -0.4226 N   0  0  0  0  0  0  0  0  0  0  0  0
    2.0083    0.2571   -0.1840 N   0  0  0  0  0  0  0  0  0  0  0  0
    1.8399    2.3304   -0.9204 N   0  0  0  0  0  0  0  0  0  0  0  0
    4.1545   -1.6342   -0.2271 N   0  0  0  0  0  0  0  0  0  0  0  0
    2.5242   -3.0336    0.8963 N   0  0  0  0  0  0  0  0  0  0  0  0
   -4.6442   -3.4441   -0.3835 N   0  0  0  0  0  0  0  0  0  0  0  0
   -0.2301    1.3942    0.1836 C   0  0  1  0  0  0  0  0  0  0  0  0
   -0.6836    2.8114    0.6352 C   0  0  1  0  0  0  0  0  0  0  0  0
   -2.1680    2.7878    1.0491 C   0  0  0  0  0  0  0  0  0  0  0  0
   -1.1824    0.8299   -0.8904 C   0  0  0  0  0  0  0  0  0  0  0  0
   -3.0480    2.1965   -0.0469 C   0  0  0  0  0  0  0  0  0  0  0  0
    1.2050    1.3465   -0.3138 C   0  0  0  0  0  0  0  0  0  0  0  0
    0.1605    3.3454    1.7973 C   0  0  0  0  0  0  0  0  0  0  0  0
   -3.4221   -0.2332   -0.3196 C   0  0  0  0  0  0  0  0  0  0  0  0
    3.2346    0.5537   -0.7387 C   0  0  0  0  0  0  0  0  0  0  0  0
    1.8291   -1.0129    0.3691 C   0  0  0  0  0  0  0  0  0  0  0  0
    3.1038    1.8451   -1.1884 C   0  0  0  0  0  0  0  0  0  0  0  0
    2.9164   -1.8626    0.3054 C   0  0  0  0  0  0  0  0  0  0  0  0
   -2.8511   -1.5684   -0.7257 C   0  0  0  0  0  0  0  0  0  0  0  0
    4.2973   -0.4351   -0.7399 C   0  0  0  0  0  0  0  0  0  0  0  0
    0.7558   -1.6492    0.9990 C   0  0  0  0  0  0  0  0  0  0  0  0
    1.2160   -2.9134    1.3197 C   0  0  0  0  0  0  0  0  0  0  0  0
   -3.8556   -2.6060   -0.5319 C   0  0  0  0  0  0  0  0  0  0  0  0
   -0.3111    0.7772    1.0833 H   0  0  0  0  0  0  0  0  0  0  0  0
   -0.5745    3.5074   -0.2079 H   0  0  0  0  0  0  0  0  0  0  0  0
   -2.2847    2.1929    1.9645 H   0  0  0  0  0  0  0  0  0  0  0  0
   -2.5090    3.8039    1.2801 H   0  0  0  0  0  0  0  0  0  0  0  0
   -0.8785   -0.1786   -1.1768 H   0  0  0  0  0  0  0  0  0  0  0  0
   -1.1341    1.4376   -1.8034 H   0  0  0  0  0  0  0  0  0  0  0  0
   -4.0871    2.1575    0.2948 H   0  0  0  0  0  0  0  0  0  0  0  0
   -3.0211    2.8248   -0.9449 H   0  0  0  0  0  0  0  0  0  0  0  0
    1.2097    3.4670    1.5125 H   0  0  0  0  0  0  0  0  0  0  0  0
   -0.2047    4.3265    2.1197 H   0  0  0  0  0  0  0  0  0  0  0  0
    0.1196    2.6713    2.6597 H   0  0  0  0  0  0  0  0  0  0  0  0
    3.8423    2.4548   -1.6882 H   0  0  0  0  0  0  0  0  0  0  0  0
   -1.9773   -1.7947   -0.1131 H   0  0  0  0  0  0  0  0  0  0  0  0
   -2.5554   -1.5293   -1.7789 H   0  0  0  0  0  0  0  0  0  0  0  0
    5.2656   -0.1646   -1.1918 H   0  0  0  0  0  0  0  0  0  0  0  0
   -0.2343   -1.2910    1.2271 H   0  0  0  0  0  0  0  0  0  0  0  0
    3.0992   -3.8574    1.0070 H   0  0  0  0  0  0  0  0  0  0  0  0
    0.7309   -3.7427    1.8152 H   0  0  0  0  0  0  0  0  0  0  0  0
  1 15  2  0  0  0  0
  2 11  1  0  0  0  0
  2 12  1  0  0  0  0
  2 15  1  0  0  0  0
  3 13  1  0  0  0  0
  3 16  1  0  0  0  0
  3 17  1  0  0  0  0
  4 13  2  0  0  0  0
  4 18  1  0  0  0  0
  5 19  1  0  0  0  0
  5 21  2  0  0  0  0
  6 19  1  0  0  0  0
  6 23  1  0  0  0  0
  6 41  1  0  0  0  0
  7 24  3  0  0  0  0
  8  9  1  0  0  0  0
  8 11  1  0  0  0  0
  8 13  1  0  0  0  0
  8 25  1  0  0  0  0
  9 10  1  0  0  0  0
  9 14  1  0  0  0  0
  9 26  1  0  0  0  0
 10 12  1  0  0  0  0
 10 27  1  0  0  0  0
 10 28  1  0  0  0  0
 11 29  1  0  0  0  0
 11 30  1  0  0  0  0
 12 31  1  0  0  0  0
 12 32  1  0  0  0  0
 14 33  1  0  0  0  0
 14 34  1  0  0  0  0
 14 35  1  0  0  0  0
 15 20  1  0  0  0  0
 16 18  2  0  0  0  0
 16 21  1  0  0  0  0
 17 19  2  0  0  0  0
 17 22  1  0  0  0  0
 18 36  1  0  0  0  0
 20 24  1  0  0  0  0
 20 37  1  0  0  0  0
 20 38  1  0  0  0  0
 21 39  1  0  0  0  0
 22 23  2  0  0  0  0
 22 40  1  0  0  0  0
 23 42  1  0  0  0  0
M  END
> <PUBCHEM_COMPOUND_CID>
49830716

> <PUBCHEM_CONFORMER_RMSD>
0.8

> <PUBCHEM_CONFORMER_DIVERSEORDER>
1
7
30
61
17
55
62
58
60
12
35
19
59
44
26
57
52
47
3
64
41
13
54
38
40
10
65
18
25
16
36
56
34
63
15
32
48
50
42
39
8
28
11
53
51
49
37
43
4
29
21
20
6
22
24
2
46
9
33
14
5
31
23
27
45

> <PUBCHEM_MMFF94_PARTIAL_CHARGES>
26
1 -0.57
11 0.3
12 0.3
13 0.01
15 0.57
16 -0.24
17 -0.08
18 0.08
19 -0.03
2 -0.66
20 0.26
21 0.47
22 -0.15
23 -0.3
24 0.36
3 0.38
36 0.15
39 0.06
4 -0.57
40 0.15
41 0.27
42 0.15
5 -0.58
6 0.03
7 -0.56
8 0.18

> <PUBCHEM_EFFECTIVE_ROTOR_COUNT>
4.2

> <PUBCHEM_PHARMACOPHORE_FEATURES>
10
1 1 acceptor
1 5 acceptor
1 6 cation
1 6 donor
1 7 acceptor
3 3 4 13 cation
5 3 4 13 16 18 rings
5 6 17 19 22 23 rings
6 2 8 9 10 11 12 rings
6 3 5 16 17 19 21 rings

> <PUBCHEM_HEAVY_ATOM_COUNT>
24

> <PUBCHEM_ATOM_DEF_STEREO_COUNT>
0

> <PUBCHEM_ATOM_UDEF_STEREO_COUNT>
2

> <PUBCHEM_BOND_DEF_STEREO_COUNT>
0

> <PUBCHEM_BOND_UDEF_STEREO_COUNT>
0

> <PUBCHEM_ISOTOPIC_ATOM_COUNT>
0

> <PUBCHEM_COMPONENT_COUNT>
1

> <PUBCHEM_CACTVS_TAUTO_COUNT>
1

> <PUBCHEM_CONFORMER_ID>
02F85B3C00000001

> <PUBCHEM_MMFF94_ENERGY>
46.1706

> <PUBCHEM_FEATURE_SELFOVERLAP>
50.961

> <PUBCHEM_SHAPE_FINGERPRINT>
10616163 171 18340488876541029311
108634 29 18118414075266168038
114674 6 17763735890715666467
11578080 2 17834364875732110672
12403259 327 13325751694149075879
12553582 1 18341884191530669159
12596599 1 18125732183962719286
12788726 201 17914331282451127121
13009979 54 17980759342494389802
13032168 30 18410297969558390856
13631057 29 18412545439876113188
13692114 37 15822960600546776139
14081887 123 18125980712208210642
14117953 113 17111275326620532703
14178342 30 18265318531009861912
14787075 74 18125158488006813868
14931854 50 18263083382293974758
15537594 2 18267320874906993247
17349148 13 18040991826604275472
17909252 39 18201731673510855702
20291156 8 18411416202748006951
20775438 99 17334472291598791135
21133410 38 16253370994267202299
21634736 98 18336267860081407550
23379529 103 18201451246216463654
23559900 14 18340758303960686901
23598288 3 18273211967898357349
238 59 18044655544949852891
238918 7 16615038829514337761
2748010 2 16608303230278632984
2871803 45 18190454046942270607
3737641 26 18264222464019924603
392239 28 18271514373621887504
46194498 28 16953364992102151783
463206 1 18337676411939065355
57527585 21 15864937359813233679

> <PUBCHEM_SHAPE_MULTIPOLES>
458.15
7.98
4.53
1.2
3.06
0.6
0.28
5.26
-2.21
2.11
1.52
-0.38
-0.36
-1.88

> <PUBCHEM_SHAPE_SELFOVERLAP>
1001.799

> <PUBCHEM_SHAPE_VOLUME>
242.5

> <PUBCHEM_COORDINATE_TYPE>
2
5
10

$$$$
