49830895
  -OEChem-10052120443D

 21 22  0     0  0  0  0  0  0999 V2000
    2.4331   -3.1937   -0.0044 Br  0  0  0  0  0  0  0  0  0  0  0  0
    1.4444    3.1405    0.0002 Cl  0  0  0  0  0  0  0  0  0  0  0  0
   -0.7044   -1.6769    0.0034 S   0  0  0  0  0  0  0  0  0  0  0  0
   -3.8204    0.6328   -0.0160 O   0  0  0  0  0  0  0  0  0  0  0  0
   -1.4005    2.1199    0.0031 N   0  0  0  0  0  0  0  0  0  0  0  0
   -3.6296   -1.6523    0.0043 N   0  0  0  0  0  0  0  0  0  0  0  0
    0.5521    0.5828    0.0015 C   0  0  0  0  0  0  0  0  0  0  0  0
    0.7786   -0.7970    0.0011 C   0  0  0  0  0  0  0  0  0  0  0  0
   -0.8525    0.8785    0.0033 C   0  0  0  0  0  0  0  0  0  0  0  0
   -1.6370   -0.2502    0.0043 C   0  0  0  0  0  0  0  0  0  0  0  0
    1.6749    1.4454    0.0003 C   0  0  0  0  0  0  0  0  0  0  0  0
    2.0830   -1.3293   -0.0007 C   0  0  0  0  0  0  0  0  0  0  0  0
    2.9699    0.9208   -0.0013 C   0  0  0  0  0  0  0  0  0  0  0  0
    3.1695   -0.4526   -0.0020 C   0  0  0  0  0  0  0  0  0  0  0  0
   -3.0614   -0.3687    0.0029 C   0  0  0  0  0  0  0  0  0  0  0  0
    3.8338    1.5812   -0.0024 H   0  0  0  0  0  0  0  0  0  0  0  0
    4.1887   -0.8324   -0.0038 H   0  0  0  0  0  0  0  0  0  0  0  0
   -0.8378    2.9650    0.0019 H   0  0  0  0  0  0  0  0  0  0  0  0
   -2.4031    2.2823    0.0042 H   0  0  0  0  0  0  0  0  0  0  0  0
   -3.0612   -2.4932    0.0120 H   0  0  0  0  0  0  0  0  0  0  0  0
   -4.6366   -1.7757   -0.0027 H   0  0  0  0  0  0  0  0  0  0  0  0
  1 12  1  0  0  0  0
  2 11  1  0  0  0  0
  3  8  1  0  0  0  0
  3 10  1  0  0  0  0
  4 15  2  0  0  0  0
  5  9  1  0  0  0  0
  5 18  1  0  0  0  0
  5 19  1  0  0  0  0
  6 15  1  0  0  0  0
  6 20  1  0  0  0  0
  6 21  1  0  0  0  0
  7  8  1  0  0  0  0
  7  9  1  0  0  0  0
  7 11  2  0  0  0  0
  8 12  2  0  0  0  0
  9 10  2  0  0  0  0
 10 15  1  0  0  0  0
 11 13  1  0  0  0  0
 12 14  1  0  0  0  0
 13 14  2  0  0  0  0
 13 16  1  0  0  0  0
 14 17  1  0  0  0  0
M  END
> <PUBCHEM_COMPOUND_CID>
49830895

> <PUBCHEM_CONFORMER_RMSD>
0.4

> <PUBCHEM_CONFORMER_DIVERSEORDER>
1
2
3

> <PUBCHEM_MMFF94_PARTIAL_CHARGES>
20
1 -0.11
10 -0.05
11 0.18
12 0.11
13 -0.15
14 -0.15
15 0.71
16 0.15
17 0.15
18 0.4
19 0.4
2 -0.18
20 0.37
21 0.37
3 -0.08
4 -0.57
5 -0.88
6 -0.8
8 0.04
9 0.08

> <PUBCHEM_EFFECTIVE_ROTOR_COUNT>
1

> <PUBCHEM_PHARMACOPHORE_FEATURES>
7
1 1 hydrophobe
1 4 acceptor
1 5 cation
1 5 donor
1 6 donor
5 3 7 8 9 10 rings
6 7 8 11 12 13 14 rings

> <PUBCHEM_HEAVY_ATOM_COUNT>
15

> <PUBCHEM_ATOM_DEF_STEREO_COUNT>
0

> <PUBCHEM_ATOM_UDEF_STEREO_COUNT>
0

> <PUBCHEM_BOND_DEF_STEREO_COUNT>
0

> <PUBCHEM_BOND_UDEF_STEREO_COUNT>
0

> <PUBCHEM_ISOTOPIC_ATOM_COUNT>
0

> <PUBCHEM_COMPONENT_COUNT>
1

> <PUBCHEM_CACTVS_TAUTO_COUNT>
5

> <PUBCHEM_CONFORMER_ID>
02F85BEF00000001

> <PUBCHEM_MMFF94_ENERGY>
36.4074

> <PUBCHEM_FEATURE_SELFOVERLAP>
35.58

> <PUBCHEM_SHAPE_FINGERPRINT>
10608611 8 18336261348958505005
10967382 1 18410573955139499046
10980938 120 18410012173506950554
11471102 20 18410288133756092341
116883 192 17909267975269489206
13140716 1 18122904493306019810
13380535 76 18263923400888230218
13380536 305 18266746964149644244
13897977 150 18265893742725478909
14144814 61 18411982455304432099
14251717 144 18339356495475574967
14325111 11 18410856611511790945
14790565 3 18265624367094517796
15042514 8 17040353511257755858
15375462 6 18409449223632637647
15442244 35 18196092136015111763
15536298 74 18343584061960373610
16945 1 18410575114959958570
17990270 104 18410012096334767242
18186145 218 18341899605893955533
193761 8 17978228253778933056
19591789 44 17977954810364906574
20201158 50 18408323302092839338
20559304 39 18410011035588368034
20588541 1 18335142016008983754
20645477 70 18409160022405835623
20871998 22 18196652883130890646
21267235 1 18339089283980038519
21501502 16 18267590112952061432
221490 88 18408330985784336458
2255824 54 18337392763613768796
23184049 29 17905322932155446674
2334 1 17762056940412050226
23402539 116 18341601616857727630
23463225 33 18339080359137990342
23552423 10 18338234967686995679
23559900 14 18411411779132223578
2748010 2 18195240023320334276
335352 9 17978510832604463213
5104073 3 18410855481624111267
528886 8 18267300009665615090
54173680 148 17762055441647993882
7364860 26 18412544336127494648
7832392 63 18268713809630644385
8809292 202 18260271858126382707
9709674 26 18409172133823408491

> <PUBCHEM_SHAPE_MULTIPOLES>
304.52
5.45
3.3
0.62
3.74
0.31
0
-1.78
0.01
-2.18
0
-0.07
-0.04
0.01

> <PUBCHEM_SHAPE_SELFOVERLAP>
630.507

> <PUBCHEM_SHAPE_VOLUME>
179.5

> <PUBCHEM_COORDINATE_TYPE>
2
5
10

$$$$
