5330392
  -OEChem-10062121593D

 48 51  0     0  0  0  0  0  0999 V2000
   -1.4598    2.6758   -1.1756 Cl  0  0  0  0  0  0  0  0  0  0  0  0
   -2.1221   -2.3875   -0.7592 N   0  0  0  0  0  0  0  0  0  0  0  0
   -4.4650    0.0902    0.2201 N   0  0  0  0  0  0  0  0  0  0  0  0
   -3.6273   -0.1056    1.2368 N   0  0  0  0  0  0  0  0  0  0  0  0
    0.3802   -4.4784    0.9686 N   0  0  0  0  0  0  0  0  0  0  0  0
    2.4695   -0.3279    0.0354 N   0  0  0  0  0  0  0  0  0  0  0  0
    3.4883    1.8257   -0.1169 N   0  0  0  0  0  0  0  0  0  0  0  0
   -4.4865    2.0143    1.2166 N   0  0  0  0  0  0  0  0  0  0  0  0
    5.0207   -1.4869   -0.0850 N   0  0  0  0  0  0  0  0  0  0  0  0
   -3.7618   -0.9823   -1.9016 C   0  0  0  0  0  0  0  0  0  0  0  0
   -2.3104   -1.1393   -1.4583 C   0  0  0  0  0  0  0  0  0  0  0  0
   -4.7382   -0.9900   -0.7234 C   0  0  0  0  0  0  0  0  0  0  0  0
   -0.9074   -2.8005   -0.2347 C   0  0  0  0  0  0  0  0  0  0  0  0
    0.2472   -2.0170   -0.3498 C   0  0  0  0  0  0  0  0  0  0  0  0
    1.4522   -2.4573    0.1865 C   0  0  0  0  0  0  0  0  0  0  0  0
   -0.7730   -4.0172    0.4347 C   0  0  0  0  0  0  0  0  0  0  0  0
    2.6519   -1.6612    0.0766 C   0  0  0  0  0  0  0  0  0  0  0  0
   -4.9752    1.3382    0.2028 C   0  0  0  0  0  0  0  0  0  0  0  0
    1.4656   -3.6844    0.8303 C   0  0  0  0  0  0  0  0  0  0  0  0
    3.5878    0.4175   -0.0676 C   0  0  0  0  0  0  0  0  0  0  0  0
    3.9024   -2.2322    0.0179 C   0  0  0  0  0  0  0  0  0  0  0  0
   -3.6731    1.0959    1.8162 C   0  0  0  0  0  0  0  0  0  0  0  0
    2.3899    2.7041   -0.0792 C   0  0  0  0  0  0  0  0  0  0  0  0
    4.8408   -0.1518   -0.1267 C   0  0  0  0  0  0  0  0  0  0  0  0
    1.1524    2.3025   -0.5874 C   0  0  0  0  0  0  0  0  0  0  0  0
    2.5331    3.9811    0.4676 C   0  0  0  0  0  0  0  0  0  0  0  0
    0.0637    3.1736   -0.5488 C   0  0  0  0  0  0  0  0  0  0  0  0
    1.4444    4.8523    0.5061 C   0  0  0  0  0  0  0  0  0  0  0  0
    0.2098    4.4485   -0.0021 C   0  0  0  0  0  0  0  0  0  0  0  0
   -4.0315   -1.7950   -2.5868 H   0  0  0  0  0  0  0  0  0  0  0  0
   -3.8614   -0.0436   -2.4602 H   0  0  0  0  0  0  0  0  0  0  0  0
   -1.6834   -1.1256   -2.3586 H   0  0  0  0  0  0  0  0  0  0  0  0
   -2.0013   -0.2925   -0.8393 H   0  0  0  0  0  0  0  0  0  0  0  0
   -4.7220   -1.9313   -0.1640 H   0  0  0  0  0  0  0  0  0  0  0  0
   -5.7623   -0.8444   -1.0863 H   0  0  0  0  0  0  0  0  0  0  0  0
   -2.8936   -3.0433   -0.7051 H   0  0  0  0  0  0  0  0  0  0  0  0
    0.2086   -1.0651   -0.8726 H   0  0  0  0  0  0  0  0  0  0  0  0
   -1.6244   -4.6795    0.5644 H   0  0  0  0  0  0  0  0  0  0  0  0
   -5.6722    1.7032   -0.5383 H   0  0  0  0  0  0  0  0  0  0  0  0
    2.3571   -4.0936    1.2954 H   0  0  0  0  0  0  0  0  0  0  0  0
    4.0790   -3.3012    0.0286 H   0  0  0  0  0  0  0  0  0  0  0  0
   -3.0944    1.3093    2.7024 H   0  0  0  0  0  0  0  0  0  0  0  0
    4.3690    2.2881    0.0965 H   0  0  0  0  0  0  0  0  0  0  0  0
    5.7482    0.4354   -0.2108 H   0  0  0  0  0  0  0  0  0  0  0  0
    1.0225    1.3302   -1.0523 H   0  0  0  0  0  0  0  0  0  0  0  0
    3.4889    4.3093    0.8684 H   0  0  0  0  0  0  0  0  0  0  0  0
    1.5580    5.8448    0.9320 H   0  0  0  0  0  0  0  0  0  0  0  0
   -0.6299    5.1378    0.0349 H   0  0  0  0  0  0  0  0  0  0  0  0
  1 27  1  0  0  0  0
  2 11  1  0  0  0  0
  2 13  1  0  0  0  0
  2 36  1  0  0  0  0
  3  4  1  0  0  0  0
  3 12  1  0  0  0  0
  3 18  1  0  0  0  0
  4 22  2  0  0  0  0
  5 16  1  0  0  0  0
  5 19  2  0  0  0  0
  6 17  1  0  0  0  0
  6 20  2  0  0  0  0
  7 20  1  0  0  0  0
  7 23  1  0  0  0  0
  7 43  1  0  0  0  0
  8 18  2  0  0  0  0
  8 22  1  0  0  0  0
  9 21  1  0  0  0  0
  9 24  2  0  0  0  0
 10 11  1  0  0  0  0
 10 12  1  0  0  0  0
 10 30  1  0  0  0  0
 10 31  1  0  0  0  0
 11 32  1  0  0  0  0
 11 33  1  0  0  0  0
 12 34  1  0  0  0  0
 12 35  1  0  0  0  0
 13 14  1  0  0  0  0
 13 16  2  0  0  0  0
 14 15  2  0  0  0  0
 14 37  1  0  0  0  0
 15 17  1  0  0  0  0
 15 19  1  0  0  0  0
 16 38  1  0  0  0  0
 17 21  2  0  0  0  0
 18 39  1  0  0  0  0
 19 40  1  0  0  0  0
 20 24  1  0  0  0  0
 21 41  1  0  0  0  0
 22 42  1  0  0  0  0
 23 25  2  0  0  0  0
 23 26  1  0  0  0  0
 24 44  1  0  0  0  0
 25 27  1  0  0  0  0
 25 45  1  0  0  0  0
 26 28  2  0  0  0  0
 26 46  1  0  0  0  0
 27 29  2  0  0  0  0
 28 29  1  0  0  0  0
 28 47  1  0  0  0  0
 29 48  1  0  0  0  0
M  END
> <PUBCHEM_COMPOUND_CID>
5330392

> <PUBCHEM_CONFORMER_RMSD>
1.2

> <PUBCHEM_CONFORMER_DIVERSEORDER>
1
16
187
226
202
92
77
147
76
115
265
104
86
128
43
177
218
273
266
182
94
261
97
112
75
165
250
59
234
176
71
163
58
264
245
204
299
29
27
241
140
198
162
180
160
248
212
69
98
260
50
164
56
269
193
18
286
219
17
222
74
231
4
213
79
238
298
291
34
145
170
157
72
30
223
190
215
150
172
257
237
2
259
54
191
109
20
65
51
131
99
251
253
47
184
275
188
14
272
33
294
229
243
214
19
80
3
304
208
70
40
24
123
96
39
249
252
91
125
67
271
169
267
240
21
153
13
293
161
302
132
210
244
107
38
186
15
285
146
124
134
232
111
173
224
216
81
11
166
203
278
90
227
22
197
139
306
185
155
236
282
129
49
135
89
5
242
41
37
174
225
300
178
239
44
230
156
220
137
55
262
118
233
93
217
45
175
85
133
254
28
179
194
136
32
119
205
276
130
181
270
167
6
283
200
64
288
117
168
122
263
207
42
247
206
256
7
53
284
10
95
84
209
110
149
268
297
23
235
101
108
280
301
100
116
154
114
142
78
255
126
189
25
281
228
277
9
141
8
73
171
46
88
221
211
103
201
303
120
258
66
305
159
57
144
152
183
290
31
138
26
83
87
292
287
61
289
82
106
143
36
274
12
105
296
68
52
246
102
48
158
295
62
279
151
60
199
35
195
196
192
63
113
127
121
148

> <PUBCHEM_MMFF94_PARTIAL_CHARGES>
40
1 -0.18
11 0.37
12 0.26
13 0.1
14 -0.15
16 0.16
17 0.31
18 0.04
19 0.16
2 -0.87
20 0.41
21 0.16
22 0.37
23 0.1
24 0.16
25 -0.15
26 -0.15
27 0.18
28 -0.15
29 -0.15
3 0.31
36 0.4
37 0.15
38 0.15
39 0.15
4 -0.71
40 0.15
41 0.15
42 0.15
43 0.4
44 0.15
45 0.15
46 0.15
47 0.15
48 0.15
5 -0.62
6 -0.62
7 -0.6
8 -0.57
9 -0.62

> <PUBCHEM_EFFECTIVE_ROTOR_COUNT>
8

> <PUBCHEM_PHARMACOPHORE_FEATURES>
12
1 2 cation
1 2 donor
1 5 acceptor
1 7 donor
1 9 acceptor
3 3 8 18 cation
3 4 8 22 cation
3 6 7 20 cation
5 3 4 8 18 22 rings
6 23 25 26 27 28 29 rings
6 5 13 14 15 16 19 rings
6 6 9 17 20 21 24 rings

> <PUBCHEM_HEAVY_ATOM_COUNT>
29

> <PUBCHEM_ATOM_DEF_STEREO_COUNT>
0

> <PUBCHEM_ATOM_UDEF_STEREO_COUNT>
0

> <PUBCHEM_BOND_DEF_STEREO_COUNT>
0

> <PUBCHEM_BOND_UDEF_STEREO_COUNT>
0

> <PUBCHEM_ISOTOPIC_ATOM_COUNT>
0

> <PUBCHEM_COMPONENT_COUNT>
1

> <PUBCHEM_CACTVS_TAUTO_COUNT>
2

> <PUBCHEM_CONFORMER_ID>
005155D800000001

> <PUBCHEM_MMFF94_ENERGY>
88.1722

> <PUBCHEM_FEATURE_SELFOVERLAP>
63.668

> <PUBCHEM_SHAPE_FINGERPRINT>
10006869 2 17762615093240475573
10439779 11 18124300860621248040
10708813 3 18342461456436209641
10794284 68 16750156091624863826
1100329 8 18410576223320120216
11059048 146 17832721435917021564
11513181 2 17843127167139146990
12539773 59 17846494881139747861
12788726 201 18336262333123525550
13122387 1 17402048894505151668
13590594 115 17834396718118418298
1361 2 18410012152301302313
14040222 75 17621891889968188317
14117953 113 18054511296909709181
14790565 3 18336555962277312012
15274700 232 16179326990602847310
15320467 1 18410575110654779601
15475509 84 17397544204072496603
16112460 7 18340200899369012800
20764821 26 18192978349145032412
21585483 110 18263638473169582445
21796203 349 18048071573259613976
21860390 5 18272375308358832534
25265897 201 17771942482049002503
437795 70 17914642508797783438
463206 1 18409454673793259288
5309563 4 18266463096591637945
9961470 85 18124304171761568617

> <PUBCHEM_SHAPE_MULTIPOLES>
558.83
9.41
7.16
1.21
4.68
2.62
0.02
0.33
-0.46
-3.75
-1.3
1.61
0.02
-1.04

> <PUBCHEM_SHAPE_SELFOVERLAP>
1204.427

> <PUBCHEM_SHAPE_VOLUME>
307

> <PUBCHEM_COORDINATE_TYPE>
2
5
10

$$$$
