44269404
  -OEChem-10052115143D

 33 36  0     0  0  0  0  0  0999 V2000
    0.9856    1.9445   -2.6065 Cl  0  0  0  0  0  0  0  0  0  0  0  0
    5.3892   -1.8386    0.5905 O   0  5  0  0  0  0  0  0  0  0  0  0
    3.8650   -1.6837    2.1628 O   0  0  0  0  0  0  0  0  0  0  0  0
   -1.2332   -0.7785   -0.4891 N   0  0  0  0  0  0  0  0  0  0  0  0
    0.1950    2.3252    0.9009 N   0  0  0  0  0  0  0  0  0  0  0  0
    4.2849   -1.4167    1.0109 N   0  3  0  0  0  0  0  0  0  0  0  0
   -0.9815    0.4308    0.1118 C   0  0  0  0  0  0  0  0  0  0  0  0
   -2.1942    0.9117    0.6039 C   0  0  0  0  0  0  0  0  0  0  0  0
   -3.1983   -0.0546    0.2792 C   0  0  0  0  0  0  0  0  0  0  0  0
   -2.5684   -1.0966   -0.4027 C   0  0  0  0  0  0  0  0  0  0  0  0
    0.2071    1.1339    0.2597 C   0  0  0  0  0  0  0  0  0  0  0  0
    1.4693    0.6593   -0.2382 C   0  0  0  0  0  0  0  0  0  0  0  0
   -2.2024    2.1478    1.2689 C   0  0  0  0  0  0  0  0  0  0  0  0
   -4.5886   -0.1384    0.5033 C   0  0  0  0  0  0  0  0  0  0  0  0
   -3.2587   -2.2194   -0.8734 C   0  0  0  0  0  0  0  0  0  0  0  0
   -0.9790    2.7951    1.3797 C   0  0  0  0  0  0  0  0  0  0  0  0
   -5.2924   -1.2551    0.0385 C   0  0  0  0  0  0  0  0  0  0  0  0
   -4.6353   -2.2790   -0.6397 C   0  0  0  0  0  0  0  0  0  0  0  0
    2.2539   -0.1311    0.6014 C   0  0  0  0  0  0  0  0  0  0  0  0
    1.9162    0.9691   -1.5228 C   0  0  0  0  0  0  0  0  0  0  0  0
    3.4855   -0.6119    0.1566 C   0  0  0  0  0  0  0  0  0  0  0  0
    3.1478    0.4883   -1.9677 C   0  0  0  0  0  0  0  0  0  0  0  0
    3.9324   -0.3022   -1.1280 C   0  0  0  0  0  0  0  0  0  0  0  0
   -0.5349   -1.3573   -0.9350 H   0  0  0  0  0  0  0  0  0  0  0  0
   -3.1086    2.5809    1.6762 H   0  0  0  0  0  0  0  0  0  0  0  0
   -5.1153    0.6522    1.0303 H   0  0  0  0  0  0  0  0  0  0  0  0
   -2.7475   -3.0174   -1.4014 H   0  0  0  0  0  0  0  0  0  0  0  0
   -0.9130    3.7555    1.8819 H   0  0  0  0  0  0  0  0  0  0  0  0
   -6.3635   -1.3225    0.2093 H   0  0  0  0  0  0  0  0  0  0  0  0
    1.8901   -0.3630    1.6009 H   0  0  0  0  0  0  0  0  0  0  0  0
   -5.2003   -3.1379   -0.9927 H   0  0  0  0  0  0  0  0  0  0  0  0
    3.5108    0.7204   -2.9659 H   0  0  0  0  0  0  0  0  0  0  0  0
    4.8862   -0.6591   -1.5082 H   0  0  0  0  0  0  0  0  0  0  0  0
  1 20  1  0  0  0  0
  2  6  1  0  0  0  0
  3  6  2  0  0  0  0
  4  7  1  0  0  0  0
  4 10  1  0  0  0  0
  4 24  1  0  0  0  0
  5 11  2  0  0  0  0
  5 16  1  0  0  0  0
  6 21  1  0  0  0  0
  7  8  2  0  0  0  0
  7 11  1  0  0  0  0
  8  9  1  0  0  0  0
  8 13  1  0  0  0  0
  9 10  1  0  0  0  0
  9 14  2  0  0  0  0
 10 15  2  0  0  0  0
 11 12  1  0  0  0  0
 12 19  1  0  0  0  0
 12 20  2  0  0  0  0
 13 16  2  0  0  0  0
 13 25  1  0  0  0  0
 14 17  1  0  0  0  0
 14 26  1  0  0  0  0
 15 18  1  0  0  0  0
 15 27  1  0  0  0  0
 16 28  1  0  0  0  0
 17 18  2  0  0  0  0
 17 29  1  0  0  0  0
 18 31  1  0  0  0  0
 19 21  2  0  0  0  0
 19 30  1  0  0  0  0
 20 22  1  0  0  0  0
 21 23  1  0  0  0  0
 22 23  2  0  0  0  0
 22 32  1  0  0  0  0
 23 33  1  0  0  0  0
M  CHG  2   2  -1   6   1
M  END
> <PUBCHEM_COMPOUND_CID>
44269404

> <PUBCHEM_CONFORMER_RMSD>
0.6

> <PUBCHEM_CONFORMER_DIVERSEORDER>
2
3
4
1

> <PUBCHEM_MMFF94_PARTIAL_CHARGES>
30
1 -0.18
10 -0.15
11 0.31
13 -0.15
14 -0.15
15 -0.15
16 0.16
17 -0.15
18 -0.15
19 -0.15
2 -0.52
20 0.18
21 0.13
22 -0.15
23 -0.15
24 0.27
25 0.15
26 0.15
27 0.15
28 0.15
29 0.15
3 -0.52
30 0.15
31 0.15
32 0.15
33 0.15
4 0.03
5 -0.62
6 0.91
7 -0.15

> <PUBCHEM_EFFECTIVE_ROTOR_COUNT>
2

> <PUBCHEM_PHARMACOPHORE_FEATURES>
10
1 2 acceptor
1 2 anion
1 3 acceptor
1 4 cation
1 4 donor
1 5 acceptor
5 4 7 8 9 10 rings
6 12 19 20 21 22 23 rings
6 5 7 8 11 13 16 rings
6 9 10 14 15 17 18 rings

> <PUBCHEM_HEAVY_ATOM_COUNT>
23

> <PUBCHEM_ATOM_DEF_STEREO_COUNT>
0

> <PUBCHEM_ATOM_UDEF_STEREO_COUNT>
0

> <PUBCHEM_BOND_DEF_STEREO_COUNT>
0

> <PUBCHEM_BOND_UDEF_STEREO_COUNT>
0

> <PUBCHEM_ISOTOPIC_ATOM_COUNT>
0

> <PUBCHEM_COMPONENT_COUNT>
1

> <PUBCHEM_CACTVS_TAUTO_COUNT>
2

> <PUBCHEM_CONFORMER_ID>
02A37F5C00000002

> <PUBCHEM_MMFF94_ENERGY>
65.9733

> <PUBCHEM_FEATURE_SELFOVERLAP>
51.013

> <PUBCHEM_SHAPE_FINGERPRINT>
10042902 136 18193281785086690598
10062212 137 18335987489011310995
10319926 262 17773587214580285922
11578080 2 18188750800357626276
11582403 64 16407007368701876088
12236239 1 18334020479841642044
12363563 72 17988371471983647581
12553582 1 18201729487145434247
12633257 1 16200138937370617922
12788726 201 18341910583624694521
12824470 246 18334851706163148072
12892183 10 14117535246054120299
13009979 54 18336555932180463392
13140716 1 17988367091433523505
13583140 156 17130408109408623802
13911987 19 16518251883997822756
14178342 30 18058174920876152152
15042514 8 18200317606809558609
15842332 3 18190767295855181572
16752209 62 18342465811675329729
17349148 13 18335707134678569271
1813 80 18113905905687839982
18186145 218 14851601111637322269
19784866 240 18113900429367147310
200 152 18040720259536900049
20511986 3 18334288777901218044
20600515 1 17917433086083279041
20626108 58 18261103097596261710
21033648 29 15841279181345805835
21065201 7 17845667927835914932
21304303 282 17693920913804755693
221357 26 16515677849561611863
23366157 5 17980196710522042049
23419403 2 18051939710773961356
23557571 272 17417547816637459605
23559900 14 17773894003867268884
23598288 3 18192169130389133353
25147074 1 18336000696036246268
25222932 49 17624696052187060415
3004659 81 18410864286465414135
335352 9 18130796677008543661
3411729 13 17558825337254185672
46194498 28 15502664848481850590
463206 1 18339356474054330467
5104073 3 17701548531457494251
5281201 14 16370438973181297511
57527293 21 16916774223954683990
602551 16 17988650657653235514
633830 44 14418404547000925599
6438754 60 17168410593548657202
7471813 234 18040156206246811348
77492 1 18189353315464725868
7970288 3 18343014532133983703
8863177 126 17904212769452447499
9658208 31 16697834894529330001
9709674 26 17697599149851144711
9841814 1 17987244515356854561

> <PUBCHEM_SHAPE_MULTIPOLES>
448.52
10.03
2.62
1.78
0.68
0.69
0.65
-8.45
-0.95
0.96
-0.64
-2.05
0.51
-2.58

> <PUBCHEM_SHAPE_SELFOVERLAP>
1010.562

> <PUBCHEM_SHAPE_VOLUME>
238.9

> <PUBCHEM_COORDINATE_TYPE>
2
5
10

$$$$
