16043242
  -OEChem-10062121573D

 43 46  0     0  0  0  0  0  0999 V2000
   -6.0684    0.5055    2.0534 S   0  0  0  0  0  0  0  0  0  0  0  0
    6.0343    2.1808   -1.2186 F   0  0  0  0  0  0  0  0  0  0  0  0
    2.4730   -0.8794    0.6350 O   0  0  0  0  0  0  0  0  0  0  0  0
    1.5264    1.1053   -0.1740 N   0  0  0  0  0  0  0  0  0  0  0  0
   -4.4366    0.8211    1.9996 N   0  0  0  0  0  0  0  0  0  0  0  0
    3.8111    0.7918   -0.3061 N   0  0  0  0  0  0  0  0  0  0  0  0
   -7.2986   -0.6683   -0.0315 N   0  0  0  0  0  0  0  0  0  0  0  0
   -5.9277   -1.2322   -1.9577 N   0  0  0  0  0  0  0  0  0  0  0  0
   -3.5951   -0.7907   -2.0559 N   0  0  0  0  0  0  0  0  0  0  0  0
   -2.5588    0.5812    0.5679 C   0  0  0  0  0  0  0  0  0  0  0  0
   -3.9605    0.4017    0.8223 C   0  0  0  0  0  0  0  0  0  0  0  0
   -4.9039   -0.1921   -0.0801 C   0  0  0  0  0  0  0  0  0  0  0  0
    0.1645    0.9302    0.0734 C   0  0  0  0  0  0  0  0  0  0  0  0
   -2.1040    1.7545   -0.0340 C   0  0  0  0  0  0  0  0  0  0  0  0
   -1.6519   -0.4176    0.9226 C   0  0  0  0  0  0  0  0  0  0  0  0
   -0.7423    1.9289   -0.2813 C   0  0  0  0  0  0  0  0  0  0  0  0
   -0.2902   -0.2430    0.6753 C   0  0  0  0  0  0  0  0  0  0  0  0
   -6.1612   -0.1951    0.5060 C   0  0  0  0  0  0  0  0  0  0  0  0
   -4.8185   -0.7390   -1.3618 C   0  0  0  0  0  0  0  0  0  0  0  0
    5.1105    0.2405   -0.2076 C   0  0  0  0  0  0  0  0  0  0  0  0
    6.5515   -1.5594    0.4554 C   0  0  0  0  0  0  0  0  0  0  0  0
    5.2712   -1.0146    0.3561 C   0  0  0  0  0  0  0  0  0  0  0  0
    2.5966    0.2213    0.1074 C   0  0  0  0  0  0  0  0  0  0  0  0
    6.1940    0.9661   -0.6745 C   0  0  0  0  0  0  0  0  0  0  0  0
    7.6530   -0.8415   -0.0102 C   0  0  0  0  0  0  0  0  0  0  0  0
    7.4742    0.4213   -0.5751 C   0  0  0  0  0  0  0  0  0  0  0  0
    6.7423   -2.9101    1.0588 C   0  0  0  0  0  0  0  0  0  0  0  0
   -7.0849   -1.1671   -1.2646 C   0  0  0  0  0  0  0  0  0  0  0  0
   -2.7979    2.5424   -0.3172 H   0  0  0  0  0  0  0  0  0  0  0  0
   -1.9915   -1.3381    1.3919 H   0  0  0  0  0  0  0  0  0  0  0  0
   -0.4020    2.8481   -0.7514 H   0  0  0  0  0  0  0  0  0  0  0  0
    0.3465   -1.0616    0.9787 H   0  0  0  0  0  0  0  0  0  0  0  0
    1.7808    1.9857   -0.6150 H   0  0  0  0  0  0  0  0  0  0  0  0
    4.4663   -1.6248    0.7374 H   0  0  0  0  0  0  0  0  0  0  0  0
    3.7626    1.7153   -0.7293 H   0  0  0  0  0  0  0  0  0  0  0  0
    8.6565   -1.2525    0.0617 H   0  0  0  0  0  0  0  0  0  0  0  0
    8.3317    0.9808   -0.9372 H   0  0  0  0  0  0  0  0  0  0  0  0
    7.7537   -3.2929    0.8857 H   0  0  0  0  0  0  0  0  0  0  0  0
    6.5759   -2.8664    2.1399 H   0  0  0  0  0  0  0  0  0  0  0  0
    6.0434   -3.6296    0.6191 H   0  0  0  0  0  0  0  0  0  0  0  0
   -7.9570   -1.5703   -1.7679 H   0  0  0  0  0  0  0  0  0  0  0  0
   -3.5882   -1.1969   -2.9823 H   0  0  0  0  0  0  0  0  0  0  0  0
   -2.7355   -0.4394   -1.6662 H   0  0  0  0  0  0  0  0  0  0  0  0
  1  5  1  0  0  0  0
  1 18  1  0  0  0  0
  2 24  1  0  0  0  0
  3 23  2  0  0  0  0
  4 13  1  0  0  0  0
  4 23  1  0  0  0  0
  4 33  1  0  0  0  0
  5 11  2  0  0  0  0
  6 20  1  0  0  0  0
  6 23  1  0  0  0  0
  6 35  1  0  0  0  0
  7 18  2  0  0  0  0
  7 28  1  0  0  0  0
  8 19  1  0  0  0  0
  8 28  2  0  0  0  0
  9 19  1  0  0  0  0
  9 42  1  0  0  0  0
  9 43  1  0  0  0  0
 10 11  1  0  0  0  0
 10 14  2  0  0  0  0
 10 15  1  0  0  0  0
 11 12  1  0  0  0  0
 12 18  1  0  0  0  0
 12 19  2  0  0  0  0
 13 16  2  0  0  0  0
 13 17  1  0  0  0  0
 14 16  1  0  0  0  0
 14 29  1  0  0  0  0
 15 17  2  0  0  0  0
 15 30  1  0  0  0  0
 16 31  1  0  0  0  0
 17 32  1  0  0  0  0
 20 22  1  0  0  0  0
 20 24  2  0  0  0  0
 21 22  2  0  0  0  0
 21 25  1  0  0  0  0
 21 27  1  0  0  0  0
 22 34  1  0  0  0  0
 24 26  1  0  0  0  0
 25 26  2  0  0  0  0
 25 36  1  0  0  0  0
 26 37  1  0  0  0  0
 27 38  1  0  0  0  0
 27 39  1  0  0  0  0
 27 40  1  0  0  0  0
 28 41  1  0  0  0  0
M  END
> <PUBCHEM_COMPOUND_CID>
16043242

> <PUBCHEM_CONFORMER_RMSD>
0.8

> <PUBCHEM_CONFORMER_DIVERSEORDER>
1
9
10
16
8
13
5
15
6
14
7
11
12
4
3
2

> <PUBCHEM_MMFF94_PARTIAL_CHARGES>
39
1 0.18
10 0.05
11 0.23
13 0.12
14 -0.15
15 -0.15
16 -0.15
17 -0.15
18 0.3
19 0.41
2 -0.19
20 0.12
21 -0.14
22 -0.15
23 0.69
24 0.19
25 -0.15
26 -0.15
27 0.14
28 0.47
29 0.15
3 -0.57
30 0.15
31 0.15
32 0.15
33 0.37
34 0.15
35 0.37
36 0.15
37 0.15
4 -0.55
41 0.15
42 0.4
43 0.4
5 -0.51
6 -0.55
7 -0.57
8 -0.62
9 -0.9

> <PUBCHEM_EFFECTIVE_ROTOR_COUNT>
5

> <PUBCHEM_PHARMACOPHORE_FEATURES>
12
1 3 acceptor
1 4 donor
1 5 acceptor
1 6 donor
1 7 acceptor
1 9 cation
1 9 donor
3 7 8 28 cation
5 1 5 11 12 18 rings
6 10 13 14 15 16 17 rings
6 20 21 22 24 25 26 rings
6 7 8 12 18 19 28 rings

> <PUBCHEM_HEAVY_ATOM_COUNT>
28

> <PUBCHEM_ATOM_DEF_STEREO_COUNT>
0

> <PUBCHEM_ATOM_UDEF_STEREO_COUNT>
0

> <PUBCHEM_BOND_DEF_STEREO_COUNT>
0

> <PUBCHEM_BOND_UDEF_STEREO_COUNT>
0

> <PUBCHEM_ISOTOPIC_ATOM_COUNT>
0

> <PUBCHEM_COMPONENT_COUNT>
1

> <PUBCHEM_CACTVS_TAUTO_COUNT>
23

> <PUBCHEM_CONFORMER_ID>
00F4CCEA00000001

> <PUBCHEM_MMFF94_ENERGY>
84.6255

> <PUBCHEM_FEATURE_SELFOVERLAP>
61.022

> <PUBCHEM_SHAPE_FINGERPRINT>
10 15 14405178474390762986
10076449 9 15791736313518485545
10299344 5 18202567280429562294
10319926 262 16343697742444917539
10391435 84 17967815007028140088
11135926 11 17967816028988198739
11315181 36 17703792535709987753
11524674 6 15123789600239108789
11991303 11 17240773929198045354
12082328 90 18113899351968334797
12166972 35 18272370888790486136
12236239 1 18201721769268499393
12516196 113 18273495672137369016
13533116 47 18334577924269345896
13668630 136 17822012021179847811
13782708 43 17918269853170331818
14068700 675 17917993888326147184
14251764 18 18272373074854219658
14347332 77 18339921515941083312
14856354 85 17418096537902039845
150020 25 16805318890220123870
15119646 104 18341613685816445822
15183329 4 18409728469732616874
15198563 99 17240757329138371364
15348495 7 14907885120231609410
15352257 5 16773803580228264246
15419008 47 16443343195430787500
15419008 91 16226605316085597452
15716309 27 18341615901528602937
1577012 14 18342745100355483320
15849732 13 16588027930614128854
17093844 174 15051733071706185531
2026 5 18125445203725243606
21315759 40 18201723938110751128
21792961 116 16732699428555174033
22956985 138 17413887431746336726
23035841 295 17847062194458123199
23081809 10 18342181063701515600
23522609 53 18127721333615920784
23559900 14 18042126616508546769
23569943 247 18337948970205558619
23576562 1 17024028353866949439
3418910 222 15841554123930305816
4325135 7 18131353007409637582
504579 68 18187938300503890038
5219985 9 18272370875467734089
5364581 5 15050863430321932931
54039377 194 18270682099808830751
59682541 35 13254793568931655903
5969126 39 18334009471941449645
9831232 110 17559689334930131766
9953998 17 14549019897415101495
9962374 69 18334568041692665706

> <PUBCHEM_SHAPE_MULTIPOLES>
537.05
25.26
1.82
1.51
18.15
0.27
0.06
9.11
2.05
2.64
0.07
-2.97
0.26
-3.49

> <PUBCHEM_SHAPE_SELFOVERLAP>
1178.897

> <PUBCHEM_SHAPE_VOLUME>
294.7

> <PUBCHEM_COORDINATE_TYPE>
2
5
10

$$$$
