11719226
  -OEChem-10052115183D

 48 51  0     0  0  0  0  0  0999 V2000
   -8.0069    0.7723   -1.7799 F   0  0  0  0  0  0  0  0  0  0  0  0
   -7.6796   -0.3454    2.2338 F   0  0  0  0  0  0  0  0  0  0  0  0
   -8.6354    1.1948    1.0430 F   0  0  0  0  0  0  0  0  0  0  0  0
   -8.8181   -0.8934    0.4640 F   0  0  0  0  0  0  0  0  0  0  0  0
   -1.6089    0.0584   -1.3751 O   0  0  0  0  0  0  0  0  0  0  0  0
    7.5132    1.3113    0.1116 N   0  0  0  0  0  0  0  0  0  0  0  0
    6.6204    2.2394    0.5010 N   0  0  0  0  0  0  0  0  0  0  0  0
    7.6061   -1.0101   -0.5614 N   0  0  0  0  0  0  0  0  0  0  0  0
    4.2521    2.1230    0.7973 N   0  0  0  0  0  0  0  0  0  0  0  0
   -0.7832   -0.5882    0.7200 N   0  0  0  0  0  0  0  0  0  0  0  0
   -3.0558   -0.2961    0.4277 N   0  0  0  0  0  0  0  0  0  0  0  0
    5.5977    0.2381    0.0738 C   0  0  0  0  0  0  0  0  0  0  0  0
    4.7768   -0.8781   -0.1301 C   0  0  0  0  0  0  0  0  0  0  0  0
    6.9572    0.0954   -0.1561 C   0  0  0  0  0  0  0  0  0  0  0  0
    3.3540   -0.8029    0.0876 C   0  0  0  0  0  0  0  0  0  0  0  0
    5.4567    1.5813    0.4757 C   0  0  0  0  0  0  0  0  0  0  0  0
    5.3943   -2.0560   -0.5512 C   0  0  0  0  0  0  0  0  0  0  0  0
    2.8188   -1.0948    1.3453 C   0  0  0  0  0  0  0  0  0  0  0  0
    2.5008   -0.4391   -0.9582 C   0  0  0  0  0  0  0  0  0  0  0  0
    0.5941   -0.6598    0.5093 C   0  0  0  0  0  0  0  0  0  0  0  0
    6.7717   -2.0620   -0.7442 C   0  0  0  0  0  0  0  0  0  0  0  0
    1.4418   -1.0235    1.5557 C   0  0  0  0  0  0  0  0  0  0  0  0
    1.1237   -0.3676   -0.7478 C   0  0  0  0  0  0  0  0  0  0  0  0
    8.9102    1.6642    0.0189 C   0  0  0  0  0  0  0  0  0  0  0  0
   -4.3249   -0.0242   -0.1355 C   0  0  0  0  0  0  0  0  0  0  0  0
   -6.7066    0.1384    0.1026 C   0  0  0  0  0  0  0  0  0  0  0  0
   -1.8016   -0.2424   -0.2014 C   0  0  0  0  0  0  0  0  0  0  0  0
   -5.4556   -0.1312    0.6575 C   0  0  0  0  0  0  0  0  0  0  0  0
   -4.4098    0.3448   -1.4678 C   0  0  0  0  0  0  0  0  0  0  0  0
   -6.8093    0.5113   -1.2378 C   0  0  0  0  0  0  0  0  0  0  0  0
   -5.6608    0.6145   -2.0228 C   0  0  0  0  0  0  0  0  0  0  0  0
   -7.9329    0.0277    0.9446 C   0  0  0  0  0  0  0  0  0  0  0  0
    4.8208   -2.9610   -0.7294 H   0  0  0  0  0  0  0  0  0  0  0  0
    3.4649   -1.3795    2.1726 H   0  0  0  0  0  0  0  0  0  0  0  0
    2.8979   -0.2078   -1.9441 H   0  0  0  0  0  0  0  0  0  0  0  0
    7.2657   -2.9728   -1.0723 H   0  0  0  0  0  0  0  0  0  0  0  0
    1.0429   -1.2535    2.5404 H   0  0  0  0  0  0  0  0  0  0  0  0
    0.5360   -0.0788   -1.6073 H   0  0  0  0  0  0  0  0  0  0  0  0
    9.0097    2.4821   -0.6993 H   0  0  0  0  0  0  0  0  0  0  0  0
    9.2496    1.9801    1.0086 H   0  0  0  0  0  0  0  0  0  0  0  0
    9.4935    0.8039   -0.3162 H   0  0  0  0  0  0  0  0  0  0  0  0
    3.3732    1.6198    0.7766 H   0  0  0  0  0  0  0  0  0  0  0  0
    4.1725    3.0937    1.0847 H   0  0  0  0  0  0  0  0  0  0  0  0
   -1.0933   -0.8151    1.6616 H   0  0  0  0  0  0  0  0  0  0  0  0
   -5.3661   -0.4221    1.7009 H   0  0  0  0  0  0  0  0  0  0  0  0
   -3.0615   -0.5614    1.4094 H   0  0  0  0  0  0  0  0  0  0  0  0
   -3.5726    0.4472   -2.1415 H   0  0  0  0  0  0  0  0  0  0  0  0
   -5.7426    0.9050   -3.0662 H   0  0  0  0  0  0  0  0  0  0  0  0
  1 30  1  0  0  0  0
  2 32  1  0  0  0  0
  3 32  1  0  0  0  0
  4 32  1  0  0  0  0
  5 27  2  0  0  0  0
  6  7  1  0  0  0  0
  6 14  1  0  0  0  0
  6 24  1  0  0  0  0
  7 16  2  0  0  0  0
  8 14  2  0  0  0  0
  8 21  1  0  0  0  0
  9 16  1  0  0  0  0
  9 42  1  0  0  0  0
  9 43  1  0  0  0  0
 10 20  1  0  0  0  0
 10 27  1  0  0  0  0
 10 44  1  0  0  0  0
 11 25  1  0  0  0  0
 11 27  1  0  0  0  0
 11 46  1  0  0  0  0
 12 13  2  0  0  0  0
 12 14  1  0  0  0  0
 12 16  1  0  0  0  0
 13 15  1  0  0  0  0
 13 17  1  0  0  0  0
 15 18  2  0  0  0  0
 15 19  1  0  0  0  0
 17 21  2  0  0  0  0
 17 33  1  0  0  0  0
 18 22  1  0  0  0  0
 18 34  1  0  0  0  0
 19 23  2  0  0  0  0
 19 35  1  0  0  0  0
 20 22  2  0  0  0  0
 20 23  1  0  0  0  0
 21 36  1  0  0  0  0
 22 37  1  0  0  0  0
 23 38  1  0  0  0  0
 24 39  1  0  0  0  0
 24 40  1  0  0  0  0
 24 41  1  0  0  0  0
 25 28  2  0  0  0  0
 25 29  1  0  0  0  0
 26 28  1  0  0  0  0
 26 30  2  0  0  0  0
 26 32  1  0  0  0  0
 28 45  1  0  0  0  0
 29 31  2  0  0  0  0
 29 47  1  0  0  0  0
 30 31  1  0  0  0  0
 31 48  1  0  0  0  0
M  END
> <PUBCHEM_COMPOUND_CID>
11719226

> <PUBCHEM_CONFORMER_RMSD>
0.8

> <PUBCHEM_CONFORMER_DIVERSEORDER>
1
13
15
12
19
4
18
14
10
3
20
16
7
17
9
11
6
2
5
8

> <PUBCHEM_MMFF94_PARTIAL_CHARGES>
42
1 -0.19
10 -0.55
11 -0.55
14 0.11
16 0.37
17 -0.15
18 -0.15
19 -0.15
2 -0.34
20 0.12
21 0.16
22 -0.15
23 -0.15
24 0.26
25 0.12
26 -0.14
27 0.69
28 -0.15
29 -0.15
3 -0.34
30 0.19
31 -0.15
32 1.16
33 0.15
34 0.15
35 0.15
36 0.15
37 0.15
38 0.15
4 -0.34
42 0.4
43 0.4
44 0.37
45 0.15
46 0.37
47 0.15
48 0.15
5 -0.57
6 0.31
7 -0.71
8 -0.57
9 -0.88

> <PUBCHEM_EFFECTIVE_ROTOR_COUNT>
6

> <PUBCHEM_PHARMACOPHORE_FEATURES>
10
1 10 donor
1 11 donor
1 5 acceptor
1 9 donor
3 6 8 14 cation
3 7 9 16 cation
5 6 7 12 14 16 rings
6 15 18 19 20 22 23 rings
6 25 26 28 29 30 31 rings
6 8 12 13 14 17 21 rings

> <PUBCHEM_HEAVY_ATOM_COUNT>
32

> <PUBCHEM_ATOM_DEF_STEREO_COUNT>
0

> <PUBCHEM_ATOM_UDEF_STEREO_COUNT>
0

> <PUBCHEM_BOND_DEF_STEREO_COUNT>
0

> <PUBCHEM_BOND_UDEF_STEREO_COUNT>
0

> <PUBCHEM_ISOTOPIC_ATOM_COUNT>
0

> <PUBCHEM_COMPONENT_COUNT>
1

> <PUBCHEM_CACTVS_TAUTO_COUNT>
20

> <PUBCHEM_CONFORMER_ID>
00B2D23A00000001

> <PUBCHEM_MMFF94_ENERGY>
86.8139

> <PUBCHEM_FEATURE_SELFOVERLAP>
50.91

> <PUBCHEM_SHAPE_FINGERPRINT>
10 15 17530679926604246896
10050765 1 14978238514180333423
10299344 5 17203608181510360591
106641 1 15502373457216547452
11136131 41 15647602373056267339
11181472 205 17274554117563076153
11315181 36 18335136476545709421
11719270 70 15719389516971445986
12082328 90 18131070429438935687
12089408 11 17060336318631501935
12741549 16 11095883728031634154
13560911 43 14851609873296650005
13617811 41 14620801505175420120
14040222 383 15791741823249383649
14068700 675 15913607276592202137
14118638 360 16878218672180012043
14251764 18 16917347026658125239
14461889 52 16732704943482989155
14856354 85 16917061192600924045
14933364 13 18411136935104872460
150020 25 18187081737357862413
15183329 4 14979960280490618699
15276724 80 18060698372918833664
15419008 47 18040710364128332613
15461852 350 15051724297547461949
15510794 2 17967813833911717706
1577012 14 17489864946905993806
15840311 113 18413112775429123724
18335252 114 18273207608675505748
18608769 82 17313101964567254639
20157964 124 18342738516750867174
20554085 129 17022899052150426826
20771845 140 15285346350563425360
21033648 29 18115300224371778600
21130935 74 16733537213713793243
21521721 280 18413388743772645834
221357 26 18413103940855650608
22149856 69 16660925452851377501
22224240 67 16588023519703633226
22956985 138 14926164355726544890
23522609 53 16916806105133056097
23576562 1 16342562032732978992
24771293 8 17532088470657908500
249057 3 18272087206638077702
255183 451 17272867412036816526
2747138 104 17821452348328911605
3004659 81 15123503731452805322
3092352 35 17632295683279393095
335352 9 15267339614048290601
34797466 226 18413108342959622462
397830 11 18116160037267781867
4073 2 18336548313014768010
4093350 32 18343019978478737718
5109719 28 17530974608864368724
5758199 1 17821447950139787563
58902169 19 17561075943219780780
59682541 35 17022903475286570721
67123 10 18343303682770276099
9663363 56 16950565494533655995
9689198 14 18407759218631866855
9953998 17 17967819349883595787

> <PUBCHEM_SHAPE_MULTIPOLES>
593.69
31.53
1.64
1.45
27.73
0.31
0.06
7.77
-0.81
-4.42
-0.13
2.75
-0.02
2.08

> <PUBCHEM_SHAPE_SELFOVERLAP>
1321.474

> <PUBCHEM_SHAPE_VOLUME>
318

> <PUBCHEM_COORDINATE_TYPE>
2
5
10

$$$$
