49830730
  -OEChem-10052115173D

 58 60  0     1  0  0  0  0  0999 V2000
    5.9382    0.9982   -0.3397 O   0  0  0  0  0  0  0  0  0  0  0  0
    6.1391   -2.0331   -0.6389 O   0  0  0  0  0  0  0  0  0  0  0  0
   -5.1627    2.2894    0.0762 O   0  0  0  0  0  0  0  0  0  0  0  0
   -6.8622    0.0906    0.0004 O   0  0  0  0  0  0  0  0  0  0  0  0
    2.7712    0.8925    0.1923 N   0  0  0  0  0  0  0  0  0  0  0  0
    2.9938   -2.4456   -0.1376 N   0  0  0  0  0  0  0  0  0  0  0  0
    0.8044   -1.5069   -0.2822 N   0  0  0  0  0  0  0  0  0  0  0  0
   -1.3630   -0.6171   -0.4059 N   0  0  0  0  0  0  0  0  0  0  0  0
   -1.0890   -2.7401    0.5555 N   0  0  0  0  0  0  0  0  0  0  0  0
    1.8149    3.1711   -0.0417 C   0  0  0  0  0  0  0  0  0  0  0  0
    3.0931    2.3088    0.2116 C   0  0  1  0  0  0  0  0  0  0  0  0
    0.7979    2.9643    1.1001 C   0  0  0  0  0  0  0  0  0  0  0  0
    1.1238    2.8223   -1.3741 C   0  0  0  0  0  0  0  0  0  0  0  0
    2.1909    4.6696   -0.0640 C   0  0  0  0  0  0  0  0  0  0  0  0
    3.8296    2.6073    1.5191 C   0  0  0  0  0  0  0  0  0  0  0  0
    3.6635   -0.0354   -0.0413 C   0  0  0  0  0  0  0  0  0  0  0  0
    3.7528   -1.3835   -0.1745 C   0  0  0  0  0  0  0  0  0  0  0  0
    5.0957    0.1421   -0.2706 C   0  0  0  0  0  0  0  0  0  0  0  0
    5.1928   -1.3243   -0.4153 C   0  0  0  0  0  0  0  0  0  0  0  0
    1.5932   -2.5348    0.0941 C   0  0  0  0  0  0  0  0  0  0  0  0
    1.1213   -3.6821    0.6983 C   0  0  0  0  0  0  0  0  0  0  0  0
   -0.5071   -1.6735   -0.0253 C   0  0  0  0  0  0  0  0  0  0  0  0
   -0.2421   -3.7301    0.9062 C   0  0  0  0  0  0  0  0  0  0  0  0
   -2.7546   -0.4346   -0.3025 C   0  0  0  0  0  0  0  0  0  0  0  0
   -3.2813    0.8493   -0.1620 C   0  0  0  0  0  0  0  0  0  0  0  0
   -3.6073   -1.5378   -0.3408 C   0  0  0  0  0  0  0  0  0  0  0  0
   -4.6607    1.0302   -0.0599 C   0  0  0  0  0  0  0  0  0  0  0  0
   -5.5134   -0.0730   -0.0981 C   0  0  0  0  0  0  0  0  0  0  0  0
   -4.9867   -1.3570   -0.2385 C   0  0  0  0  0  0  0  0  0  0  0  0
   -4.2228    3.3617    0.1063 C   0  0  0  0  0  0  0  0  0  0  0  0
   -7.6631   -1.0887   -0.0474 C   0  0  0  0  0  0  0  0  0  0  0  0
    3.7796    2.5312   -0.6173 H   0  0  0  0  0  0  0  0  0  0  0  0
    1.1999    3.2644    2.0727 H   0  0  0  0  0  0  0  0  0  0  0  0
    0.4533    1.9290    1.1792 H   0  0  0  0  0  0  0  0  0  0  0  0
   -0.0963    3.5773    0.9306 H   0  0  0  0  0  0  0  0  0  0  0  0
    1.8130    2.9558   -2.2154 H   0  0  0  0  0  0  0  0  0  0  0  0
    0.7728    1.7858   -1.3922 H   0  0  0  0  0  0  0  0  0  0  0  0
    0.2534    3.4642   -1.5517 H   0  0  0  0  0  0  0  0  0  0  0  0
    2.5411    5.0238    0.9106 H   0  0  0  0  0  0  0  0  0  0  0  0
    1.3256    5.2871   -0.3328 H   0  0  0  0  0  0  0  0  0  0  0  0
    2.9770    4.8659   -0.8015 H   0  0  0  0  0  0  0  0  0  0  0  0
    1.8034    0.6418    0.3710 H   0  0  0  0  0  0  0  0  0  0  0  0
    4.7401    2.0138    1.6360 H   0  0  0  0  0  0  0  0  0  0  0  0
    4.1375    3.6550    1.5772 H   0  0  0  0  0  0  0  0  0  0  0  0
    3.2106    2.3839    2.3943 H   0  0  0  0  0  0  0  0  0  0  0  0
    3.4057   -3.3649   -0.2884 H   0  0  0  0  0  0  0  0  0  0  0  0
    1.7649   -4.5000    0.9973 H   0  0  0  0  0  0  0  0  0  0  0  0
   -0.7054   -4.5917    1.3749 H   0  0  0  0  0  0  0  0  0  0  0  0
   -0.8515    0.2057   -0.7097 H   0  0  0  0  0  0  0  0  0  0  0  0
   -2.5693    1.6681   -0.1372 H   0  0  0  0  0  0  0  0  0  0  0  0
   -3.2446   -2.5488   -0.4936 H   0  0  0  0  0  0  0  0  0  0  0  0
   -5.5887   -2.2579   -0.2858 H   0  0  0  0  0  0  0  0  0  0  0  0
   -3.5579    3.2922    0.9741 H   0  0  0  0  0  0  0  0  0  0  0  0
   -3.6715    3.4426   -0.8368 H   0  0  0  0  0  0  0  0  0  0  0  0
   -4.7952    4.2884    0.2193 H   0  0  0  0  0  0  0  0  0  0  0  0
   -7.5719   -1.5996   -1.0120 H   0  0  0  0  0  0  0  0  0  0  0  0
   -7.4544   -1.7531    0.7980 H   0  0  0  0  0  0  0  0  0  0  0  0
   -8.7074   -0.7729    0.0471 H   0  0  0  0  0  0  0  0  0  0  0  0
  1 18  2  0  0  0  0
  2 19  2  0  0  0  0
  3 27  1  0  0  0  0
  3 30  1  0  0  0  0
  4 28  1  0  0  0  0
  4 31  1  0  0  0  0
  5 11  1  0  0  0  0
  5 16  1  0  0  0  0
  5 42  1  0  0  0  0
  6 17  1  0  0  0  0
  6 20  1  0  0  0  0
  6 46  1  0  0  0  0
  7 20  2  0  0  0  0
  7 22  1  0  0  0  0
  8 22  1  0  0  0  0
  8 24  1  0  0  0  0
  8 49  1  0  0  0  0
  9 22  2  0  0  0  0
  9 23  1  0  0  0  0
 10 11  1  0  0  0  0
 10 12  1  0  0  0  0
 10 13  1  0  0  0  0
 10 14  1  0  0  0  0
 11 15  1  0  0  0  0
 11 32  1  0  0  0  0
 12 33  1  0  0  0  0
 12 34  1  0  0  0  0
 12 35  1  0  0  0  0
 13 36  1  0  0  0  0
 13 37  1  0  0  0  0
 13 38  1  0  0  0  0
 14 39  1  0  0  0  0
 14 40  1  0  0  0  0
 14 41  1  0  0  0  0
 15 43  1  0  0  0  0
 15 44  1  0  0  0  0
 15 45  1  0  0  0  0
 16 17  2  0  0  0  0
 16 18  1  0  0  0  0
 17 19  1  0  0  0  0
 18 19  1  0  0  0  0
 20 21  1  0  0  0  0
 21 23  2  0  0  0  0
 21 47  1  0  0  0  0
 23 48  1  0  0  0  0
 24 25  2  0  0  0  0
 24 26  1  0  0  0  0
 25 27  1  0  0  0  0
 25 50  1  0  0  0  0
 26 29  2  0  0  0  0
 26 51  1  0  0  0  0
 27 28  2  0  0  0  0
 28 29  1  0  0  0  0
 29 52  1  0  0  0  0
 30 53  1  0  0  0  0
 30 54  1  0  0  0  0
 30 55  1  0  0  0  0
 31 56  1  0  0  0  0
 31 57  1  0  0  0  0
 31 58  1  0  0  0  0
M  END
> <PUBCHEM_COMPOUND_CID>
49830730

> <PUBCHEM_CONFORMER_RMSD>
1.2

> <PUBCHEM_CONFORMER_DIVERSEORDER>
3
177
1
291
31
76
525
602
103
173
225
437
340
234
157
172
114
579
221
232
497
208
524
311
219
562
113
206
287
606
72
118
2
182
318
543
516
406
223
165
368
74
248
73
638
141
128
183
99
140
80
158
471
213
84
486
78
106
139
622
289
335
211
199
415
593
4
50
53
122
143
37
285
408
536
49
86
11
55
96
56
180
370
284
167
326
155
36
501
52
312
608
204
121
178
228
625
51
71
310
427
309
95
640
9
164
250
321
19
163
273
227
261
123
324
150
12
448
231
193
316
333
66
152
506
131
596
28
489
642
46
356
194
27
373
634
148
241
306
117
26
64
338
119
105
202
67
137
65
17
317
87
22
201
58
348
14
196
38
397
98
93
303
546
133
209
23
104
97
16
70
563
480
412
29
322
24
643
390
360
391
15
490
447
61
410
613
34
144
25
508
420
299
347
168
187
240
279
6
458
77
89
379
300
229
509
94
277
571
351
222
5
110
7
302
185
85
8
258

> <PUBCHEM_MMFF94_PARTIAL_CHARGES>
34
1 -0.57
11 0.37
16 0.03
17 0.03
18 0.64
19 0.64
2 -0.57
20 0.41
21 -0.15
22 0.72
23 0.16
24 0.1
25 -0.15
26 -0.15
27 0.08
28 0.08
29 -0.15
3 -0.36
30 0.28
31 0.28
4 -0.36
42 0.4
46 0.4
47 0.15
48 0.15
49 0.4
5 -0.87
50 0.15
51 0.15
52 0.15
6 -0.6
7 -0.62
8 -0.6
9 -0.62

> <PUBCHEM_EFFECTIVE_ROTOR_COUNT>
9

> <PUBCHEM_PHARMACOPHORE_FEATURES>
13
1 1 acceptor
1 2 acceptor
1 3 acceptor
1 4 acceptor
1 5 cation
1 5 donor
1 6 donor
1 8 donor
4 10 12 13 14 hydrophobe
4 16 17 18 19 rings
4 7 8 9 22 cation
6 24 25 26 27 28 29 rings
6 7 9 20 21 22 23 rings

> <PUBCHEM_HEAVY_ATOM_COUNT>
31

> <PUBCHEM_ATOM_DEF_STEREO_COUNT>
0

> <PUBCHEM_ATOM_UDEF_STEREO_COUNT>
1

> <PUBCHEM_BOND_DEF_STEREO_COUNT>
0

> <PUBCHEM_BOND_UDEF_STEREO_COUNT>
0

> <PUBCHEM_ISOTOPIC_ATOM_COUNT>
0

> <PUBCHEM_COMPONENT_COUNT>
1

> <PUBCHEM_CACTVS_TAUTO_COUNT>
33

> <PUBCHEM_CONFORMER_ID>
02F85B4A00000003

> <PUBCHEM_MMFF94_ENERGY>
120.359

> <PUBCHEM_FEATURE_SELFOVERLAP>
65.976

> <PUBCHEM_SHAPE_FINGERPRINT>
10316853 100 18335140929171280842
10439779 11 18409440376042414098
11273773 38 18189621716877745964
11828042 279 17973422576733932647
12107698 1 18201719561407155839
12166972 35 18272371979469196137
13402501 40 18408040702187865302
13533116 47 18341331205849094957
13560911 43 18335699455398454985
1361 2 18335982055735529673
14466204 15 18409444748224045632
14790565 3 18335989692319491084
14849402 71 18409174341404690389
15001296 14 18262792012197877849
15320467 1 18410292536224716749
15351339 4 18340200808647023536
15439362 3 18193838365149937668
15475509 84 17397257235716335915
17093844 170 18412820314052930256
21133410 127 17897999385761937309
21315763 129 18412825772555241727
23559900 14 18339074999213840947
3178227 256 18335713753576496899
335352 9 18409171000764425966
338550 245 18408606988978071381
350125 39 18410012139748592477
5104073 3 17897451588842570923
53794403 172 18191025814089173060
550186 83 17749373855133420480
5776283 40 18192723452164999212
9961470 85 18121496014859055429

> <PUBCHEM_SHAPE_MULTIPOLES>
589.58
15.39
5.47
0.88
16.57
2.4
-0.1
0.09
1.47
-3.42
-0.96
-0.53
0.28
0.62

> <PUBCHEM_SHAPE_SELFOVERLAP>
1255.539

> <PUBCHEM_SHAPE_VOLUME>
324.7

> <PUBCHEM_COORDINATE_TYPE>
2
5
10

$$$$
