49830569
  -OEChem-10052120443D

 58 62  0     0  0  0  0  0  0999 V2000
    9.4856   -0.0428    2.2456 F   0  0  0  0  0  0  0  0  0  0  0  0
   -1.3822   -4.3500   -0.0656 O   0  0  0  0  0  0  0  0  0  0  0  0
   -7.2559    3.2589   -0.7226 O   0  0  0  0  0  0  0  0  0  0  0  0
    5.0834   -1.7025   -0.3429 O   0  0  0  0  0  0  0  0  0  0  0  0
   -9.3957    2.2620    0.7441 O   0  0  0  0  0  0  0  0  0  0  0  0
   -1.0935   -0.0142   -0.1560 N   0  0  0  0  0  0  0  0  0  0  0  0
    0.1746   -2.7640   -0.2582 N   0  0  0  0  0  0  0  0  0  0  0  0
    5.1878    0.3468   -1.4230 N   0  0  0  0  0  0  0  0  0  0  0  0
   -2.2359   -0.8070   -0.0175 C   0  0  0  0  0  0  0  0  0  0  0  0
    0.2680   -0.2788   -0.3028 C   0  0  0  0  0  0  0  0  0  0  0  0
   -2.2842   -2.2012    0.0070 C   0  0  0  0  0  0  0  0  0  0  0  0
    0.8482   -1.5398   -0.3493 C   0  0  0  0  0  0  0  0  0  0  0  0
   -4.6884   -0.7277    0.2550 C   0  0  0  0  0  0  0  0  0  0  0  0
   -3.4580   -0.0934    0.1091 C   0  0  0  0  0  0  0  0  0  0  0  0
   -1.1379   -3.1374   -0.1081 C   0  0  0  0  0  0  0  0  0  0  0  0
   -3.5470   -2.8309    0.1567 C   0  0  0  0  0  0  0  0  0  0  0  0
    2.2493   -1.6513   -0.5022 C   0  0  0  0  0  0  0  0  0  0  0  0
    3.0696   -0.5309   -0.6078 C   0  0  0  0  0  0  0  0  0  0  0  0
    1.1210    0.8479   -0.4124 C   0  0  0  0  0  0  0  0  0  0  0  0
   -4.7322   -2.1069    0.2791 C   0  0  0  0  0  0  0  0  0  0  0  0
   -5.9026    0.0473    0.3804 C   0  0  0  0  0  0  0  0  0  0  0  0
    2.5014    0.7287   -0.5628 C   0  0  0  0  0  0  0  0  0  0  0  0
    4.5070   -0.6839   -0.7643 C   0  0  0  0  0  0  0  0  0  0  0  0
   -6.0000    1.2954   -0.2349 C   0  0  0  0  0  0  0  0  0  0  0  0
   -6.9769   -0.4535    1.1156 C   0  0  0  0  0  0  0  0  0  0  0  0
    6.6107    0.3306   -1.6762 C   0  0  0  0  0  0  0  0  0  0  0  0
   -7.1718    2.0427   -0.1150 C   0  0  0  0  0  0  0  0  0  0  0  0
   -8.1486    0.2939    1.2357 C   0  0  0  0  0  0  0  0  0  0  0  0
    7.3882    0.9560   -0.5544 C   0  0  0  0  0  0  0  0  0  0  0  0
   -8.2461    1.5418    0.6203 C   0  0  0  0  0  0  0  0  0  0  0  0
    8.0897    0.1499    0.3423 C   0  0  0  0  0  0  0  0  0  0  0  0
    7.4092    2.3431   -0.4087 C   0  0  0  0  0  0  0  0  0  0  0  0
    8.8120    0.7310    1.3844 C   0  0  0  0  0  0  0  0  0  0  0  0
    8.1314    2.9242    0.6337 C   0  0  0  0  0  0  0  0  0  0  0  0
    8.8329    2.1181    1.5303 C   0  0  0  0  0  0  0  0  0  0  0  0
   -6.1133    3.6977   -1.4549 C   0  0  0  0  0  0  0  0  0  0  0  0
   -1.2989    0.9819   -0.1493 H   0  0  0  0  0  0  0  0  0  0  0  0
   -3.3960    0.9947    0.1282 H   0  0  0  0  0  0  0  0  0  0  0  0
    0.7917   -3.5723   -0.3156 H   0  0  0  0  0  0  0  0  0  0  0  0
   -3.6394   -3.9156    0.1755 H   0  0  0  0  0  0  0  0  0  0  0  0
    2.7017   -2.6423   -0.5437 H   0  0  0  0  0  0  0  0  0  0  0  0
    0.6983    1.8516   -0.3728 H   0  0  0  0  0  0  0  0  0  0  0  0
   -5.6588   -2.6676    0.3608 H   0  0  0  0  0  0  0  0  0  0  0  0
    3.0871    1.6413   -0.6089 H   0  0  0  0  0  0  0  0  0  0  0  0
   -5.1690    1.6414   -0.8371 H   0  0  0  0  0  0  0  0  0  0  0  0
   -6.9359   -1.4067    1.6356 H   0  0  0  0  0  0  0  0  0  0  0  0
    6.7895    0.8803   -2.6075 H   0  0  0  0  0  0  0  0  0  0  0  0
    6.9336   -0.7027   -1.8483 H   0  0  0  0  0  0  0  0  0  0  0  0
    4.6753    1.1390   -1.7955 H   0  0  0  0  0  0  0  0  0  0  0  0
   -8.9760   -0.1050    1.8166 H   0  0  0  0  0  0  0  0  0  0  0  0
    8.0813   -0.9320    0.2419 H   0  0  0  0  0  0  0  0  0  0  0  0
    6.8663    2.9812   -1.1010 H   0  0  0  0  0  0  0  0  0  0  0  0
    8.1475    4.0042    0.7473 H   0  0  0  0  0  0  0  0  0  0  0  0
    9.3953    2.5701    2.3419 H   0  0  0  0  0  0  0  0  0  0  0  0
  -10.0277    1.7591    1.2861 H   0  0  0  0  0  0  0  0  0  0  0  0
   -5.2395    3.8243   -0.8064 H   0  0  0  0  0  0  0  0  0  0  0  0
   -5.9095    3.0483   -2.3132 H   0  0  0  0  0  0  0  0  0  0  0  0
   -6.3519    4.6874   -1.8586 H   0  0  0  0  0  0  0  0  0  0  0  0
  1 33  1  0  0  0  0
  2 15  2  0  0  0  0
  3 27  1  0  0  0  0
  3 36  1  0  0  0  0
  4 23  2  0  0  0  0
  5 30  1  0  0  0  0
  5 55  1  0  0  0  0
  6  9  1  0  0  0  0
  6 10  1  0  0  0  0
  6 37  1  0  0  0  0
  7 12  1  0  0  0  0
  7 15  1  0  0  0  0
  7 39  1  0  0  0  0
  8 23  1  0  0  0  0
  8 26  1  0  0  0  0
  8 49  1  0  0  0  0
  9 11  2  0  0  0  0
  9 14  1  0  0  0  0
 10 12  2  0  0  0  0
 10 19  1  0  0  0  0
 11 15  1  0  0  0  0
 11 16  1  0  0  0  0
 12 17  1  0  0  0  0
 13 14  2  0  0  0  0
 13 20  1  0  0  0  0
 13 21  1  0  0  0  0
 14 38  1  0  0  0  0
 16 20  2  0  0  0  0
 16 40  1  0  0  0  0
 17 18  2  0  0  0  0
 17 41  1  0  0  0  0
 18 22  1  0  0  0  0
 18 23  1  0  0  0  0
 19 22  2  0  0  0  0
 19 42  1  0  0  0  0
 20 43  1  0  0  0  0
 21 24  2  0  0  0  0
 21 25  1  0  0  0  0
 22 44  1  0  0  0  0
 24 27  1  0  0  0  0
 24 45  1  0  0  0  0
 25 28  2  0  0  0  0
 25 46  1  0  0  0  0
 26 29  1  0  0  0  0
 26 47  1  0  0  0  0
 26 48  1  0  0  0  0
 27 30  2  0  0  0  0
 28 30  1  0  0  0  0
 28 50  1  0  0  0  0
 29 31  2  0  0  0  0
 29 32  1  0  0  0  0
 31 33  1  0  0  0  0
 31 51  1  0  0  0  0
 32 34  2  0  0  0  0
 32 52  1  0  0  0  0
 33 35  2  0  0  0  0
 34 35  1  0  0  0  0
 34 53  1  0  0  0  0
 35 54  1  0  0  0  0
 36 56  1  0  0  0  0
 36 57  1  0  0  0  0
 36 58  1  0  0  0  0
M  END
> <PUBCHEM_COMPOUND_CID>
49830569

> <PUBCHEM_CONFORMER_RMSD>
1

> <PUBCHEM_CONFORMER_DIVERSEORDER>
1
16
48
47
10
45
25
50
12
32
33
43
34
24
9
2
36
37
19
29
15
13
30
42
23
26
14
17
11
20
22
49
46
35
28
27
31
7
3
21
44
5
6
38
41
18
40
8
4
39

> <PUBCHEM_MMFF94_PARTIAL_CHARGES>
51
1 -0.19
10 0.1
11 0.09
12 0.12
14 -0.15
15 0.54
16 -0.15
17 -0.15
18 0.09
19 -0.15
2 -0.57
20 -0.15
22 -0.15
23 0.54
24 -0.15
25 -0.15
26 0.44
27 0.08
28 -0.15
29 -0.14
3 -0.36
30 0.08
31 -0.15
32 -0.15
33 0.19
34 -0.15
35 -0.15
36 0.28
37 0.4
38 0.15
39 0.37
4 -0.57
40 0.15
41 0.15
42 0.15
43 0.15
44 0.15
45 0.15
46 0.15
49 0.37
5 -0.53
50 0.15
51 0.15
52 0.15
53 0.15
54 0.15
55 0.45
6 -0.6
7 -0.55
8 -0.73
9 0.1

> <PUBCHEM_EFFECTIVE_ROTOR_COUNT>
6.4

> <PUBCHEM_PHARMACOPHORE_FEATURES>
13
1 2 acceptor
1 3 acceptor
1 4 acceptor
1 5 donor
1 6 cation
1 6 donor
1 7 donor
1 8 donor
6 10 12 17 18 19 22 rings
6 21 24 25 27 28 30 rings
6 29 31 32 33 34 35 rings
6 9 11 13 14 16 20 rings
7 6 7 9 10 11 12 15 rings

> <PUBCHEM_HEAVY_ATOM_COUNT>
36

> <PUBCHEM_ATOM_DEF_STEREO_COUNT>
0

> <PUBCHEM_ATOM_UDEF_STEREO_COUNT>
0

> <PUBCHEM_BOND_DEF_STEREO_COUNT>
0

> <PUBCHEM_BOND_UDEF_STEREO_COUNT>
0

> <PUBCHEM_ISOTOPIC_ATOM_COUNT>
0

> <PUBCHEM_COMPONENT_COUNT>
1

> <PUBCHEM_CACTVS_TAUTO_COUNT>
203

> <PUBCHEM_CONFORMER_ID>
02F85AA900000001

> <PUBCHEM_MMFF94_ENERGY>
145.2173

> <PUBCHEM_FEATURE_SELFOVERLAP>
65.986

> <PUBCHEM_SHAPE_FINGERPRINT>
10 15 18187372013123658091
10280341 67 18410849954033329605
10369192 42 18408889508559717687
10625338 131 18335138670098435880
11061554 47 18342176687114432212
11135926 11 18040988553423230766
11136131 41 17970629584912678283
11421887 45 18337944577467513701
11456790 92 17748829639906348352
11578821 258 18273217525223015912
11607047 74 9006469725574116514
11621639 307 17914338979513102689
12013929 2 18343308055548117526
12013929 29 17766848226346853041
12144603 126 17822299037461228596
12539745 222 12973878205206846471
12758862 11 18273502277226942465
12838862 33 18410287008780589957
14150023 24 18259982669489070467
14344974 52 17988923393083635789
14394314 77 18261388979547125714
15274700 208 17917415562574506872
15320295 198 17987801964058992008
15419008 145 17603583002425172469
15604295 49 18342457088212376881
1577012 14 18411699889480621975
16067689 68 11602825649902074357
16991971 28 9367343730173635606
1818759 1 8502654809442609641
19302320 297 18041287655262274812
19315958 150 18271812306855532774
20105231 36 11674873391095101248
2026 5 11675143879171208464
20982279 24 12180122017630496344
21792934 111 18273214176223391490
21927370 108 12179842793216551799
23522609 53 17241908664616877126
23576562 1 15051436275864056353
24771293 8 18411416241144250159
25025965 108 11531045257079839713
2851757 41 9799393539777539837
306946 40 17489299803089590704
3918712 181 18342174436287591584
397638 26 18410289246363982392
4403749 210 17774439507273663726
4616759 239 17458356247391613841
4760202 170 17418088832530887960
49967989 163 13182726083204946005
504579 68 13039187022168157824
54039377 194 8718826492213376233
54583773 228 11167645613079725834
6057620 51 11383840368251275772
6289498 60 18408045130421272544
636775 72 18412265034784602697

> <PUBCHEM_SHAPE_MULTIPOLES>
695.17
33.37
3.86
1.23
26.56
0.42
-0.22
-31.5
-11.93
-5.01
0.55
1.98
-0.54
2.25

> <PUBCHEM_SHAPE_SELFOVERLAP>
1547.005

> <PUBCHEM_SHAPE_VOLUME>
369

> <PUBCHEM_COORDINATE_TYPE>
2
5
10

$$$$
