489124
  -OEChem-10052120443D

 45 50  0     0  0  0  0  0  0999 V2000
   -1.7574   -3.9403   -0.2053 O   0  0  0  0  0  0  0  0  0  0  0  0
    2.8233   -3.3795   -0.2254 O   0  0  0  0  0  0  0  0  0  0  0  0
   -1.5038    1.5375    0.2520 N   0  0  0  0  0  0  0  0  0  0  0  0
    1.2592    1.8758    0.2410 N   0  0  0  0  0  0  0  0  0  0  0  0
    0.5801   -4.0460   -0.2482 N   0  0  0  0  0  0  0  0  0  0  0  0
   -0.6767    0.4726    0.1510 C   0  0  0  0  0  0  0  0  0  0  0  0
   -1.1578   -0.8754    0.0447 C   0  0  0  0  0  0  0  0  0  0  0  0
    0.7127    0.6427    0.1452 C   0  0  0  0  0  0  0  0  0  0  0  0
    1.5039   -0.5494    0.0333 C   0  0  0  0  0  0  0  0  0  0  0  0
   -0.3674   -2.0162   -0.0625 C   0  0  0  0  0  0  0  0  0  0  0  0
   -2.5806   -0.5099    0.0958 C   0  0  0  0  0  0  0  0  0  0  0  0
    1.0112   -1.8474   -0.0686 C   0  0  0  0  0  0  0  0  0  0  0  0
   -2.7409    0.9116    0.2170 C   0  0  0  0  0  0  0  0  0  0  0  0
    2.7969    0.1486    0.0728 C   0  0  0  0  0  0  0  0  0  0  0  0
   -1.3074    2.9601    0.3685 C   0  0  0  0  0  0  0  0  0  0  0  0
    2.6104    1.5669    0.1950 C   0  0  0  0  0  0  0  0  0  0  0  0
   -0.6527   -3.4356   -0.1783 C   0  0  0  0  0  0  0  0  0  0  0  0
    1.6297   -3.1562   -0.1886 C   0  0  0  0  0  0  0  0  0  0  0  0
   -3.7603   -1.2912    0.0472 C   0  0  0  0  0  0  0  0  0  0  0  0
   -1.2491    3.6453   -0.9949 C   0  0  0  0  0  0  0  0  0  0  0  0
   -4.0089    1.5086    0.2846 C   0  0  0  0  0  0  0  0  0  0  0  0
    4.1298   -0.3248    0.0133 C   0  0  0  0  0  0  0  0  0  0  0  0
    3.6975    2.4523    0.2533 C   0  0  0  0  0  0  0  0  0  0  0  0
   -5.0196   -0.6856    0.1156 C   0  0  0  0  0  0  0  0  0  0  0  0
   -5.1398    0.6929    0.2323 C   0  0  0  0  0  0  0  0  0  0  0  0
   -1.0303    5.1426   -0.8529 C   0  0  0  0  0  0  0  0  0  0  0  0
    5.2064    0.5667    0.0721 C   0  0  0  0  0  0  0  0  0  0  0  0
    4.9915    1.9336    0.1900 C   0  0  0  0  0  0  0  0  0  0  0  0
   -2.1928    3.3568    0.8829 H   0  0  0  0  0  0  0  0  0  0  0  0
   -0.5365    3.2121    1.0970 H   0  0  0  0  0  0  0  0  0  0  0  0
    0.8977    2.8073    0.2153 H   0  0  0  0  0  0  0  0  0  0  0  0
   -3.7065   -2.3713   -0.0440 H   0  0  0  0  0  0  0  0  0  0  0  0
   -2.1814    3.4701   -1.5457 H   0  0  0  0  0  0  0  0  0  0  0  0
   -0.4443    3.2229   -1.6074 H   0  0  0  0  0  0  0  0  0  0  0  0
   -4.1366    2.5832    0.3666 H   0  0  0  0  0  0  0  0  0  0  0  0
    0.7025   -5.0488   -0.3349 H   0  0  0  0  0  0  0  0  0  0  0  0
    4.3374   -1.3861   -0.0790 H   0  0  0  0  0  0  0  0  0  0  0  0
    3.5398    3.5228    0.3455 H   0  0  0  0  0  0  0  0  0  0  0  0
   -5.9130   -1.3032    0.0760 H   0  0  0  0  0  0  0  0  0  0  0  0
   -6.1274    1.1441    0.2815 H   0  0  0  0  0  0  0  0  0  0  0  0
   -1.8421    5.6058   -0.2833 H   0  0  0  0  0  0  0  0  0  0  0  0
   -0.9942    5.6159   -1.8391 H   0  0  0  0  0  0  0  0  0  0  0  0
   -0.0860    5.3527   -0.3404 H   0  0  0  0  0  0  0  0  0  0  0  0
    6.2220    0.1828    0.0247 H   0  0  0  0  0  0  0  0  0  0  0  0
    5.8413    2.6098    0.2341 H   0  0  0  0  0  0  0  0  0  0  0  0
  1 17  2  0  0  0  0
  2 18  2  0  0  0  0
  3  6  1  0  0  0  0
  3 13  1  0  0  0  0
  3 15  1  0  0  0  0
  4  8  1  0  0  0  0
  4 16  1  0  0  0  0
  4 31  1  0  0  0  0
  5 17  1  0  0  0  0
  5 18  1  0  0  0  0
  5 36  1  0  0  0  0
  6  7  1  0  0  0  0
  6  8  2  0  0  0  0
  7 10  2  0  0  0  0
  7 11  1  0  0  0  0
  8  9  1  0  0  0  0
  9 12  2  0  0  0  0
  9 14  1  0  0  0  0
 10 12  1  0  0  0  0
 10 17  1  0  0  0  0
 11 13  1  0  0  0  0
 11 19  2  0  0  0  0
 12 18  1  0  0  0  0
 13 21  2  0  0  0  0
 14 16  1  0  0  0  0
 14 22  2  0  0  0  0
 15 20  1  0  0  0  0
 15 29  1  0  0  0  0
 15 30  1  0  0  0  0
 16 23  2  0  0  0  0
 19 24  1  0  0  0  0
 19 32  1  0  0  0  0
 20 26  1  0  0  0  0
 20 33  1  0  0  0  0
 20 34  1  0  0  0  0
 21 25  1  0  0  0  0
 21 35  1  0  0  0  0
 22 27  1  0  0  0  0
 22 37  1  0  0  0  0
 23 28  1  0  0  0  0
 23 38  1  0  0  0  0
 24 25  2  0  0  0  0
 24 39  1  0  0  0  0
 25 40  1  0  0  0  0
 26 41  1  0  0  0  0
 26 42  1  0  0  0  0
 26 43  1  0  0  0  0
 27 28  2  0  0  0  0
 27 44  1  0  0  0  0
 28 45  1  0  0  0  0
M  END
> <PUBCHEM_COMPOUND_CID>
489124

> <PUBCHEM_CONFORMER_RMSD>
0.6

> <PUBCHEM_CONFORMER_DIVERSEORDER>
1
2

> <PUBCHEM_MMFF94_PARTIAL_CHARGES>
34
1 -0.57
10 0.09
12 0.09
13 -0.15
15 0.26
16 -0.15
17 0.54
18 0.54
19 -0.15
2 -0.57
21 -0.15
22 -0.15
23 -0.15
24 -0.15
25 -0.15
27 -0.15
28 -0.15
3 -0.04
31 0.27
32 0.15
35 0.15
36 0.37
37 0.15
38 0.15
39 0.15
4 -0.05
40 0.15
44 0.15
45 0.15
5 -0.49
6 -0.05
7 -0.01
8 -0.05
9 -0.01

> <PUBCHEM_EFFECTIVE_ROTOR_COUNT>
2.2

> <PUBCHEM_PHARMACOPHORE_FEATURES>
13
1 1 acceptor
1 2 acceptor
1 26 hydrophobe
1 3 cation
1 4 cation
1 4 donor
1 5 donor
5 3 6 7 11 13 rings
5 4 8 9 14 16 rings
5 5 10 12 17 18 rings
6 11 13 19 21 24 25 rings
6 14 16 22 23 27 28 rings
6 6 7 8 9 10 12 rings

> <PUBCHEM_HEAVY_ATOM_COUNT>
28

> <PUBCHEM_ATOM_DEF_STEREO_COUNT>
0

> <PUBCHEM_ATOM_UDEF_STEREO_COUNT>
0

> <PUBCHEM_BOND_DEF_STEREO_COUNT>
0

> <PUBCHEM_BOND_UDEF_STEREO_COUNT>
0

> <PUBCHEM_ISOTOPIC_ATOM_COUNT>
0

> <PUBCHEM_COMPONENT_COUNT>
1

> <PUBCHEM_CACTVS_TAUTO_COUNT>
12

> <PUBCHEM_CONFORMER_ID>
000776A400000001

> <PUBCHEM_MMFF94_ENERGY>
111.8489

> <PUBCHEM_FEATURE_SELFOVERLAP>
66.439

> <PUBCHEM_SHAPE_FINGERPRINT>
10411042 1 17114943851784373390
10675989 125 17901936449690918461
10967382 1 18411982472579597483
1100329 8 17978513358034865289
11445158 3 17753335558873575245
11578080 2 16952805047871320487
13140716 1 18267296724158253514
13617811 41 18261971694581711588
138480 1 17835523721836701762
13911987 19 18335129942830061493
14117953 113 18409449202152994645
14223421 5 18265614269298642637
14705955 166 11820101396390593636
14790565 3 18339931505655504633
14955137 171 18190757516477879553
15042514 8 18265895937770421386
15196674 1 18411701014640116937
15219462 58 16880492371604919209
15927050 60 18341896324270825694
16728300 4 17680117735165582562
19591789 44 18339642355587462571
20600515 1 18198634421689852821
20775438 99 17471246753953667285
20905425 154 18197221347294292967
21033648 29 18129375067854636873
21421861 104 18117559522538895427
22113638 7 18265051529719673189
23366157 5 18043820770990790826
23402539 116 18271238434356750397
23558518 356 17899425185938150809
23559900 14 18123462774619551067
266924 87 18265605494881144685
3178227 256 18193288605663074907
335352 9 18412263948210423182
3380486 145 18335151856475800601
350125 39 18266743480756833944
484989 97 17832698351280409583
5265222 85 18194976360401493732
5486654 2 18339928211336148940
59554788 170 18339649936278801135
59755656 215 18410013199909033126

> <PUBCHEM_SHAPE_MULTIPOLES>
549.55
8.75
5.62
0.7
1.28
0.27
-0.05
2.76
0.97
-0.31
-1.49
-0.08
0.29
0.41

> <PUBCHEM_SHAPE_SELFOVERLAP>
1274.359

> <PUBCHEM_SHAPE_VOLUME>
282.7

> <PUBCHEM_COORDINATE_TYPE>
2
5
10

$$$$
