44352395
  -OEChem-10052115163D

 58 61  0     1  0  0  0  0  0999 V2000
   -4.3560    4.1926   -1.0711 F   0  0  0  0  0  0  0  0  0  0  0  0
   -3.8782    2.1075   -1.5188 F   0  0  0  0  0  0  0  0  0  0  0  0
   -5.6384    2.6095   -0.2802 F   0  0  0  0  0  0  0  0  0  0  0  0
    1.4064   -1.4587   -0.1090 O   0  0  0  0  0  0  0  0  0  0  0  0
    5.9340    1.1840   -0.3886 O   0  0  0  0  0  0  0  0  0  0  0  0
   -3.5477    2.9068    0.5985 O   0  0  0  0  0  0  0  0  0  0  0  0
    3.7396    0.4394   -0.6928 N   0  0  0  0  0  0  0  0  0  0  0  0
    0.8386   -5.0299   -0.5932 N   0  0  0  0  0  0  0  0  0  0  0  0
    1.7695   -5.5218    1.3621 N   0  0  0  0  0  0  0  0  0  0  0  0
    5.8933    4.4328    1.1228 N   0  0  0  0  0  0  0  0  0  0  0  0
   -5.9875   -0.9103    1.0702 N   0  0  0  0  0  0  0  0  0  0  0  0
    0.5298   -2.5094   -0.5076 C   0  0  1  0  0  0  0  0  0  0  0  0
    2.3589    0.6819   -0.5527 C   0  0  0  0  0  0  0  0  0  0  0  0
    1.4105   -0.3956   -1.0359 C   0  0  0  0  0  0  0  0  0  0  0  0
    0.9683   -3.8416    0.0690 C   0  0  0  0  0  0  0  0  0  0  0  0
    1.9303    1.8446   -0.0031 C   0  0  0  0  0  0  0  0  0  0  0  0
   -0.9021   -2.1579   -0.1609 C   0  0  0  0  0  0  0  0  0  0  0  0
    0.5034    2.1199    0.1532 C   0  0  0  0  0  0  0  0  0  0  0  0
    2.9064    2.8254    0.4340 C   0  0  0  0  0  0  0  0  0  0  0  0
    4.7192    1.3605   -0.2830 C   0  0  0  0  0  0  0  0  0  0  0  0
    1.5452   -4.1707    1.2729 C   0  0  0  0  0  0  0  0  0  0  0  0
    4.2240    2.6335    0.3188 C   0  0  0  0  0  0  0  0  0  0  0  0
   -1.8342   -1.9478   -1.1772 C   0  0  0  0  0  0  0  0  0  0  0  0
   -1.2885   -2.0446    1.1745 C   0  0  0  0  0  0  0  0  0  0  0  0
    4.1969   -0.8182   -1.2876 C   0  0  0  0  0  0  0  0  0  0  0  0
    1.3328   -6.0097    0.2223 C   0  0  0  0  0  0  0  0  0  0  0  0
    0.2841   -5.2318   -1.9108 C   0  0  0  0  0  0  0  0  0  0  0  0
   -0.1990    2.7607   -0.8674 C   0  0  0  0  0  0  0  0  0  0  0  0
   -0.1557    1.7429    1.3233 C   0  0  0  0  0  0  0  0  0  0  0  0
   -3.1528   -1.6242   -0.8579 C   0  0  0  0  0  0  0  0  0  0  0  0
   -2.6072   -1.7209    1.4937 C   0  0  0  0  0  0  0  0  0  0  0  0
   -3.5395   -1.5109    0.4776 C   0  0  0  0  0  0  0  0  0  0  0  0
   -1.5604    3.0248   -0.7178 C   0  0  0  0  0  0  0  0  0  0  0  0
   -1.5170    2.0071    1.4730 C   0  0  0  0  0  0  0  0  0  0  0  0
   -2.2194    2.6481    0.4524 C   0  0  0  0  0  0  0  0  0  0  0  0
    5.1433    3.6247    0.7618 C   0  0  0  0  0  0  0  0  0  0  0  0
   -4.8903   -1.1794    0.8046 C   0  0  0  0  0  0  0  0  0  0  0  0
   -4.3609    2.9367   -0.5690 C   0  0  0  0  0  0  0  0  0  0  0  0
    0.6148   -2.6093   -1.5985 H   0  0  0  0  0  0  0  0  0  0  0  0
    1.7080   -0.7454   -2.0316 H   0  0  0  0  0  0  0  0  0  0  0  0
    0.3950   -0.0117   -1.1657 H   0  0  0  0  0  0  0  0  0  0  0  0
    2.5204    3.7449    0.8692 H   0  0  0  0  0  0  0  0  0  0  0  0
    1.8124   -3.5060    2.0818 H   0  0  0  0  0  0  0  0  0  0  0  0
   -1.5479   -2.0312   -2.2221 H   0  0  0  0  0  0  0  0  0  0  0  0
   -0.5753   -2.1899    1.9808 H   0  0  0  0  0  0  0  0  0  0  0  0
    3.8531   -0.8816   -2.3240 H   0  0  0  0  0  0  0  0  0  0  0  0
    3.8328   -1.6659   -0.7016 H   0  0  0  0  0  0  0  0  0  0  0  0
    5.2891   -0.8792   -1.3028 H   0  0  0  0  0  0  0  0  0  0  0  0
    1.3501   -7.0529   -0.0625 H   0  0  0  0  0  0  0  0  0  0  0  0
    0.9188   -4.7195   -2.6379 H   0  0  0  0  0  0  0  0  0  0  0  0
   -0.7331   -4.8345   -1.9291 H   0  0  0  0  0  0  0  0  0  0  0  0
    0.2610   -6.3018   -2.1342 H   0  0  0  0  0  0  0  0  0  0  0  0
    0.3024    3.0674   -1.7823 H   0  0  0  0  0  0  0  0  0  0  0  0
    0.3769    1.2407    2.1274 H   0  0  0  0  0  0  0  0  0  0  0  0
   -3.8676   -1.4619   -1.6610 H   0  0  0  0  0  0  0  0  0  0  0  0
   -2.8924   -1.6319    2.5393 H   0  0  0  0  0  0  0  0  0  0  0  0
   -2.0577    3.5581   -1.5221 H   0  0  0  0  0  0  0  0  0  0  0  0
   -2.0255    1.7100    2.3861 H   0  0  0  0  0  0  0  0  0  0  0  0
  1 38  1  0  0  0  0
  2 38  1  0  0  0  0
  3 38  1  0  0  0  0
  4 12  1  0  0  0  0
  4 14  1  0  0  0  0
  5 20  2  0  0  0  0
  6 35  1  0  0  0  0
  6 38  1  0  0  0  0
  7 13  1  0  0  0  0
  7 20  1  0  0  0  0
  7 25  1  0  0  0  0
  8 15  1  0  0  0  0
  8 26  1  0  0  0  0
  8 27  1  0  0  0  0
  9 21  1  0  0  0  0
  9 26  2  0  0  0  0
 10 36  3  0  0  0  0
 11 37  3  0  0  0  0
 12 15  1  0  0  0  0
 12 17  1  0  0  0  0
 12 39  1  0  0  0  0
 13 14  1  0  0  0  0
 13 16  2  0  0  0  0
 14 40  1  0  0  0  0
 14 41  1  0  0  0  0
 15 21  2  0  0  0  0
 16 18  1  0  0  0  0
 16 19  1  0  0  0  0
 17 23  2  0  0  0  0
 17 24  1  0  0  0  0
 18 28  2  0  0  0  0
 18 29  1  0  0  0  0
 19 22  2  0  0  0  0
 19 42  1  0  0  0  0
 20 22  1  0  0  0  0
 21 43  1  0  0  0  0
 22 36  1  0  0  0  0
 23 30  1  0  0  0  0
 23 44  1  0  0  0  0
 24 31  2  0  0  0  0
 24 45  1  0  0  0  0
 25 46  1  0  0  0  0
 25 47  1  0  0  0  0
 25 48  1  0  0  0  0
 26 49  1  0  0  0  0
 27 50  1  0  0  0  0
 27 51  1  0  0  0  0
 27 52  1  0  0  0  0
 28 33  1  0  0  0  0
 28 53  1  0  0  0  0
 29 34  2  0  0  0  0
 29 54  1  0  0  0  0
 30 32  2  0  0  0  0
 30 55  1  0  0  0  0
 31 32  1  0  0  0  0
 31 56  1  0  0  0  0
 32 37  1  0  0  0  0
 33 35  2  0  0  0  0
 33 57  1  0  0  0  0
 34 35  1  0  0  0  0
 34 58  1  0  0  0  0
M  END
> <PUBCHEM_COMPOUND_CID>
44352395

> <PUBCHEM_CONFORMER_RMSD>
1

> <PUBCHEM_CONFORMER_DIVERSEORDER>
1
107
94
62
29
20
66
101
55
60
18
82
87
73
59
103
14
64
36
92
3
61
81
54
90
38
49
104
72
57
23
100
102
24
37
51
42
58
96
15
50
70
106
12
105
84
22
45
68
43
8
10
74
97
34
93
95
39
30
52
53
35
67
63
56
25
76
80
78
79
98
31
28
5
11
86
27
21
69
91
71
17
44
85
33
7
40
26
6
9
89
46
75
32
16
88
4
77
65
99
47
41
48
13
83
2
19

> <PUBCHEM_MMFF94_PARTIAL_CHARGES>
49
1 -0.34
10 -0.56
11 -0.56
12 0.6
13 -0.03
14 0.42
15 -0.33
16 -0.03
17 -0.14
18 0.03
19 -0.15
2 -0.34
20 0.62
21 0.08
22 0.08
23 -0.15
24 -0.15
25 0.3
26 0.04
27 0.26
28 -0.15
29 -0.15
3 -0.34
30 -0.15
31 -0.15
32 0.07
33 -0.15
34 -0.15
35 0.08
36 0.49
37 0.48
38 1.3
4 -0.56
42 0.15
43 0.15
44 0.15
45 0.15
49 0.15
5 -0.57
53 0.15
54 0.15
55 0.15
56 0.15
57 0.15
58 0.15
6 -0.36
7 -0.47
8 0.05
9 -0.57

> <PUBCHEM_EFFECTIVE_ROTOR_COUNT>
8

> <PUBCHEM_PHARMACOPHORE_FEATURES>
10
1 10 acceptor
1 11 acceptor
1 4 acceptor
1 5 acceptor
1 6 acceptor
3 8 9 26 cation
5 8 9 15 21 26 rings
6 17 23 24 30 31 32 rings
6 18 28 29 33 34 35 rings
6 7 13 16 19 20 22 rings

> <PUBCHEM_HEAVY_ATOM_COUNT>
38

> <PUBCHEM_ATOM_DEF_STEREO_COUNT>
0

> <PUBCHEM_ATOM_UDEF_STEREO_COUNT>
1

> <PUBCHEM_BOND_DEF_STEREO_COUNT>
0

> <PUBCHEM_BOND_UDEF_STEREO_COUNT>
0

> <PUBCHEM_ISOTOPIC_ATOM_COUNT>
0

> <PUBCHEM_COMPONENT_COUNT>
1

> <PUBCHEM_CACTVS_TAUTO_COUNT>
1

> <PUBCHEM_CONFORMER_ID>
02A4C38B00000001

> <PUBCHEM_MMFF94_ENERGY>
98.0714

> <PUBCHEM_FEATURE_SELFOVERLAP>
50.75

> <PUBCHEM_SHAPE_FINGERPRINT>
10190108 129 18191613937040913227
10290309 65 18410857697980352398
1100329 8 17687186387946222227
11014199 57 17113538671406464458
12156800 1 17769050749329922593
12422481 6 18121254023812038449
12608794 3 18051435133673431985
13140716 1 18411702054629214704
14004853 49 18341319085013192424
140371 6 17978231891880425548
14659021 117 17836069448897017128
14725015 67 18267301126515484571
15361156 5 17979081810695994156
15815584 197 18120967098474888163
15968369 26 17977073822378690665
19311894 1 17760080018885500930
20775438 99 18193533607692806567
21033648 144 17913494816316252308
3027735 51 18410579504580085195
3380486 145 17689163726317241250
4409770 3 18121486118816510053
463206 1 17472146077023432601
5080951 261 17753014424043148352
5265222 85 18264782119359162948

> <PUBCHEM_SHAPE_MULTIPOLES>
717.69
10.47
8.76
1.4
7.81
10.52
0
-12.1
-1.4
-3
0.32
-0.47
0.51
1.68

> <PUBCHEM_SHAPE_SELFOVERLAP>
1567.839

> <PUBCHEM_SHAPE_VOLUME>
391.1

> <PUBCHEM_COORDINATE_TYPE>
2
5
10

$$$$
