11373886
  -OEChem-10062121563D

 51 53  0     1  0  0  0  0  0999 V2000
    5.6009   -3.4563    1.2016 Cl  0  0  0  0  0  0  0  0  0  0  0  0
    3.1677   -1.8890    1.7974 F   0  0  0  0  0  0  0  0  0  0  0  0
   -3.6903    2.8201   -0.1587 O   0  0  0  0  0  0  0  0  0  0  0  0
   -4.2966   -4.3678   -1.2547 O   0  0  0  0  0  0  0  0  0  0  0  0
   -2.7802   -2.9900    1.5311 O   0  0  0  0  0  0  0  0  0  0  0  0
   -2.6644   -1.1050   -0.7147 N   0  0  1  0  0  0  0  0  0  0  0  0
    2.1378    0.2413    0.3545 N   0  0  0  0  0  0  0  0  0  0  0  0
    0.8764    4.1599   -0.0734 N   0  0  0  0  0  0  0  0  0  0  0  0
   -4.9692   -2.3013    1.4704 N   0  0  0  0  0  0  0  0  0  0  0  0
    2.6377    2.5321    0.1618 N   0  0  0  0  0  0  0  0  0  0  0  0
   -3.0211    0.0590    0.1323 C   0  0  0  0  0  0  0  0  0  0  0  0
   -3.6714   -2.1455   -0.5681 C   0  0  1  0  0  0  0  0  0  0  0  0
   -1.9980    1.1443    0.0775 C   0  0  0  0  0  0  0  0  0  0  0  0
   -0.6482    0.8198    0.1707 C   0  0  0  0  0  0  0  0  0  0  0  0
   -2.3755    2.4749   -0.0655 C   0  0  0  0  0  0  0  0  0  0  0  0
   -3.2978   -3.3651   -1.4077 C   0  0  0  0  0  0  0  0  0  0  0  0
    0.3238    1.8341    0.1202 C   0  0  0  0  0  0  0  0  0  0  0  0
   -2.5400   -0.6824   -2.1019 C   0  0  0  0  0  0  0  0  0  0  0  0
   -0.0448    3.1817   -0.0239 C   0  0  0  0  0  0  0  0  0  0  0  0
   -3.7298   -2.5209    0.9074 C   0  0  0  0  0  0  0  0  0  0  0  0
   -1.4027    3.4779   -0.1149 C   0  0  0  0  0  0  0  0  0  0  0  0
    1.6893    1.5776    0.2077 C   0  0  0  0  0  0  0  0  0  0  0  0
    2.1674    3.7822    0.0225 C   0  0  0  0  0  0  0  0  0  0  0  0
    3.3119   -0.4134   -0.0494 C   0  0  0  0  0  0  0  0  0  0  0  0
   -4.3737    3.1034    1.0604 C   0  0  0  0  0  0  0  0  0  0  0  0
    3.8149   -1.4864    0.6928 C   0  0  0  0  0  0  0  0  0  0  0  0
    3.9876    0.0051   -1.1999 C   0  0  0  0  0  0  0  0  0  0  0  0
    4.9819   -2.1346    0.2887 C   0  0  0  0  0  0  0  0  0  0  0  0
    5.1547   -0.6429   -1.6042 C   0  0  0  0  0  0  0  0  0  0  0  0
    5.6518   -1.7128   -0.8599 C   0  0  0  0  0  0  0  0  0  0  0  0
   -3.0871   -0.2140    1.1920 H   0  0  0  0  0  0  0  0  0  0  0  0
   -4.0122    0.4244   -0.1647 H   0  0  0  0  0  0  0  0  0  0  0  0
   -4.6599   -1.7893   -0.8900 H   0  0  0  0  0  0  0  0  0  0  0  0
   -0.3625   -0.2218    0.2907 H   0  0  0  0  0  0  0  0  0  0  0  0
   -2.3419   -3.7996   -1.0953 H   0  0  0  0  0  0  0  0  0  0  0  0
   -3.2474   -3.1571   -2.4793 H   0  0  0  0  0  0  0  0  0  0  0  0
   -2.0947   -1.4657   -2.7233 H   0  0  0  0  0  0  0  0  0  0  0  0
   -1.8600    0.1642   -2.2410 H   0  0  0  0  0  0  0  0  0  0  0  0
   -3.5053   -0.3981   -2.5382 H   0  0  0  0  0  0  0  0  0  0  0  0
   -1.7168    4.5145   -0.2281 H   0  0  0  0  0  0  0  0  0  0  0  0
    1.6132   -0.2778    1.0535 H   0  0  0  0  0  0  0  0  0  0  0  0
   -5.7503   -1.9164    0.9494 H   0  0  0  0  0  0  0  0  0  0  0  0
   -5.1403   -2.5168    2.4471 H   0  0  0  0  0  0  0  0  0  0  0  0
   -5.1398   -3.9916   -1.5601 H   0  0  0  0  0  0  0  0  0  0  0  0
    2.9046    4.5748   -0.0184 H   0  0  0  0  0  0  0  0  0  0  0  0
   -4.3322    2.2469    1.7405 H   0  0  0  0  0  0  0  0  0  0  0  0
   -5.4210    3.3119    0.8252 H   0  0  0  0  0  0  0  0  0  0  0  0
   -3.9414    3.9857    1.5428 H   0  0  0  0  0  0  0  0  0  0  0  0
    3.6141    0.8269   -1.8055 H   0  0  0  0  0  0  0  0  0  0  0  0
    5.6747   -0.3168   -2.5003 H   0  0  0  0  0  0  0  0  0  0  0  0
    6.5619   -2.2087   -1.1878 H   0  0  0  0  0  0  0  0  0  0  0  0
  1 28  1  0  0  0  0
  2 26  1  0  0  0  0
  3 15  1  0  0  0  0
  3 25  1  0  0  0  0
  4 16  1  0  0  0  0
  4 44  1  0  0  0  0
  5 20  2  0  0  0  0
  6 11  1  0  0  0  0
  6 12  1  0  0  0  0
  6 18  1  0  0  0  0
  7 22  1  0  0  0  0
  7 24  1  0  0  0  0
  7 41  1  0  0  0  0
  8 19  1  0  0  0  0
  8 23  2  0  0  0  0
  9 20  1  0  0  0  0
  9 42  1  0  0  0  0
  9 43  1  0  0  0  0
 10 22  2  0  0  0  0
 10 23  1  0  0  0  0
 11 13  1  0  0  0  0
 11 31  1  0  0  0  0
 11 32  1  0  0  0  0
 12 16  1  0  0  0  0
 12 20  1  0  0  0  0
 12 33  1  0  0  0  0
 13 14  2  0  0  0  0
 13 15  1  0  0  0  0
 14 17  1  0  0  0  0
 14 34  1  0  0  0  0
 15 21  2  0  0  0  0
 16 35  1  0  0  0  0
 16 36  1  0  0  0  0
 17 19  2  0  0  0  0
 17 22  1  0  0  0  0
 18 37  1  0  0  0  0
 18 38  1  0  0  0  0
 18 39  1  0  0  0  0
 19 21  1  0  0  0  0
 21 40  1  0  0  0  0
 23 45  1  0  0  0  0
 24 26  2  0  0  0  0
 24 27  1  0  0  0  0
 25 46  1  0  0  0  0
 25 47  1  0  0  0  0
 25 48  1  0  0  0  0
 26 28  1  0  0  0  0
 27 29  2  0  0  0  0
 27 49  1  0  0  0  0
 28 30  2  0  0  0  0
 29 30  1  0  0  0  0
 29 50  1  0  0  0  0
 30 51  1  0  0  0  0
M  END
> <PUBCHEM_COMPOUND_CID>
11373886

> <PUBCHEM_CONFORMER_RMSD>
1

> <PUBCHEM_CONFORMER_DIVERSEORDER>
1
139
78
4
147
82
112
63
86
146
129
152
138
23
92
150
17
141
37
149
127
66
145
124
140
77
142
53
114
69
44
61
56
95
137
123
135
38
136
88
111
117
73
122
15
72
85
41
57
45
125
79
101
5
144
148
93
133
134
62
90
33
34
55
27
104
11
143
115
59
46
96
39
12
30
103
13
131
91
110
48
6
132
16
54
70
98
7
108
75
9
60
29
21
74
99
87
94
20
121
71
14
2
80
58
40
128
151
106
50
31
19
130
8
65
116
113
76
47
43
118
32
120
36
22
105
25
42
97
89
102
67
24
81
51
64
83
52
26
68
49
28
35
109
100
119
84
3
18
126
107
10

> <PUBCHEM_MMFF94_PARTIAL_CHARGES>
39
1 -0.18
10 -0.62
11 0.41
12 0.33
13 -0.14
14 -0.15
15 0.08
16 0.28
18 0.27
19 0.31
2 -0.19
20 0.57
21 -0.15
22 0.41
23 0.47
24 0.1
25 0.28
26 0.19
27 -0.15
28 0.18
29 -0.15
3 -0.36
30 -0.15
34 0.15
4 -0.68
40 0.15
41 0.4
42 0.37
43 0.37
44 0.4
45 0.15
49 0.15
5 -0.57
50 0.15
51 0.15
6 -0.81
7 -0.6
8 -0.62
9 -0.8

> <PUBCHEM_EFFECTIVE_ROTOR_COUNT>
8

> <PUBCHEM_PHARMACOPHORE_FEATURES>
12
1 3 acceptor
1 4 acceptor
1 4 donor
1 5 acceptor
1 6 cation
1 7 donor
1 9 donor
3 7 10 22 cation
3 8 10 23 cation
6 13 14 15 17 19 21 rings
6 24 26 27 28 29 30 rings
6 8 10 17 19 22 23 rings

> <PUBCHEM_HEAVY_ATOM_COUNT>
30

> <PUBCHEM_ATOM_DEF_STEREO_COUNT>
1

> <PUBCHEM_ATOM_UDEF_STEREO_COUNT>
0

> <PUBCHEM_BOND_DEF_STEREO_COUNT>
0

> <PUBCHEM_BOND_UDEF_STEREO_COUNT>
0

> <PUBCHEM_ISOTOPIC_ATOM_COUNT>
0

> <PUBCHEM_COMPONENT_COUNT>
1

> <PUBCHEM_CACTVS_TAUTO_COUNT>
6

> <PUBCHEM_CONFORMER_ID>
00AD8D3E00000001

> <PUBCHEM_MMFF94_ENERGY>
112.8528

> <PUBCHEM_FEATURE_SELFOVERLAP>
61.069

> <PUBCHEM_SHAPE_FINGERPRINT>
10622 236 18042115467448868114
10928967 22 18411709811066221550
1100329 8 18337955580286593249
11991303 11 18114458947657949557
12107183 9 18271261494869723219
12422481 6 17702965693927813039
12553582 1 18337947883789133456
12990986 174 18339074892066492254
13140716 1 18341892965669365904
13690498 29 18337405888949455940
13726171 33 18056790735017714500
14251757 5 18265053531237541716
14705955 166 16770405934769772088
14790565 3 17834403315072237784
14844126 61 18338230449445204371
14848178 96 8718562600785451790
14863182 85 17759805140768066844
14866123 147 18338237051495259819
15042514 8 18337958874679191145
15250474 111 18262513668474196458
15320294 125 17827915127395451286
16728300 4 17174894224945059825
17492 89 18268707375827378039
17909252 39 18336556022654579450
19301679 30 18195814192203502323
19319366 153 17605845702643691851
20511986 3 17606960591067101300
20775530 9 18261109716030199054
21703447 108 18198328753167352712
23559900 14 18339912796904446745
3178227 256 18193574268186017545
3383291 50 18200585900948375591
3737641 26 18122352534195208965
44062 13 18339646637696191502
44880168 125 17631744772167132806
463206 1 18264206911858514434
5104073 3 18343865494188294392
5309563 4 18193566785635406787
5486654 36 18408889520674479169
70251023 43 18266453403093018115
7970288 3 18340766030818219678
86090 222 16955065974891975939

> <PUBCHEM_SHAPE_MULTIPOLES>
569.47
12.17
6.24
1.41
11.2
0.39
-0.19
-11.92
0.53
-5.32
0.33
-0.09
-1.34
-1.76

> <PUBCHEM_SHAPE_SELFOVERLAP>
1218.708

> <PUBCHEM_SHAPE_VOLUME>
317

> <PUBCHEM_COORDINATE_TYPE>
2
5
10

$$$$
