49830885
  -OEChem-10052115183D

 58 61  0     0  0  0  0  0  0999 V2000
    1.0178   -4.4814    0.3849 S   0  0  0  0  0  0  0  0  0  0  0  0
    4.8170    0.7008    0.1741 O   0  0  0  0  0  0  0  0  0  0  0  0
   -5.6379    3.2628    1.2354 O   0  0  0  0  0  0  0  0  0  0  0  0
   -6.5339    0.6095    0.0205 O   0  0  0  0  0  0  0  0  0  0  0  0
    4.0401    2.7304   -0.6512 O   0  0  0  0  0  0  0  0  0  0  0  0
    2.0161   -4.2320   -0.6453 O   0  0  0  0  0  0  0  0  0  0  0  0
    1.3440   -4.2352    1.7826 O   0  0  0  0  0  0  0  0  0  0  0  0
   -2.6415    2.9598    0.0967 N   0  0  0  0  0  0  0  0  0  0  0  0
    2.6119    1.1861    0.2340 N   0  0  0  0  0  0  0  0  0  0  0  0
   -3.6375    0.0323   -1.2411 N   0  0  0  0  0  0  0  0  0  0  0  0
    2.4801   -0.0370    0.8074 N   0  0  0  0  0  0  0  0  0  0  0  0
    0.4527   -6.0861    0.2280 N   0  0  0  0  0  0  0  0  0  0  0  0
    6.1625    1.0552   -0.1585 C   0  0  0  0  0  0  0  0  0  0  0  0
   -3.7142    2.1986    0.0113 C   0  0  0  0  0  0  0  0  0  0  0  0
   -4.1126    1.0185   -0.5290 C   0  0  0  0  0  0  0  0  0  0  0  0
    1.3920    1.8348    0.0941 C   0  0  0  0  0  0  0  0  0  0  0  0
    0.4378    0.9611    0.6133 C   0  0  0  0  0  0  0  0  0  0  0  0
   -1.2827    2.5746    0.0978 C   0  0  0  0  0  0  0  0  0  0  0  0
   -3.9625   -1.3572   -0.9964 C   0  0  0  0  0  0  0  0  0  0  0  0
   -0.9192    1.3291    0.6186 C   0  0  0  0  0  0  0  0  0  0  0  0
   -5.0355    2.4522    0.5814 C   0  0  0  0  0  0  0  0  0  0  0  0
   -5.4690    1.1687   -0.0062 C   0  0  0  0  0  0  0  0  0  0  0  0
    6.5325    2.3274    0.6029 C   0  0  0  0  0  0  0  0  0  0  0  0
    7.0616   -0.1047    0.2640 C   0  0  0  0  0  0  0  0  0  0  0  0
    6.2478    1.2791   -1.6675 C   0  0  0  0  0  0  0  0  0  0  0  0
    1.0350    3.0865   -0.4302 C   0  0  0  0  0  0  0  0  0  0  0  0
   -0.3192    3.4381   -0.4180 C   0  0  0  0  0  0  0  0  0  0  0  0
   -2.7231   -2.1358   -0.6525 C   0  0  0  0  0  0  0  0  0  0  0  0
    3.8823    1.6371   -0.1334 C   0  0  0  0  0  0  0  0  0  0  0  0
    1.1740   -0.1613    1.0305 C   0  0  0  0  0  0  0  0  0  0  0  0
   -1.8259   -2.4981   -1.6572 C   0  0  0  0  0  0  0  0  0  0  0  0
   -2.4703   -2.4955    0.6713 C   0  0  0  0  0  0  0  0  0  0  0  0
   -0.4234   -3.5802   -0.0144 C   0  0  0  0  0  0  0  0  0  0  0  0
   -0.6761   -3.2203   -1.3382 C   0  0  0  0  0  0  0  0  0  0  0  0
   -1.3206   -3.2179    0.9903 C   0  0  0  0  0  0  0  0  0  0  0  0
   -2.7425    3.9472    0.3259 H   0  0  0  0  0  0  0  0  0  0  0  0
   -4.4180   -1.7828   -1.8991 H   0  0  0  0  0  0  0  0  0  0  0  0
   -4.7099   -1.4758   -0.2017 H   0  0  0  0  0  0  0  0  0  0  0  0
   -1.6503    0.6499    1.0456 H   0  0  0  0  0  0  0  0  0  0  0  0
   -2.7701    0.1616   -1.7595 H   0  0  0  0  0  0  0  0  0  0  0  0
    7.6177    2.4834    0.5835 H   0  0  0  0  0  0  0  0  0  0  0  0
    6.2213    2.2610    1.6520 H   0  0  0  0  0  0  0  0  0  0  0  0
    6.0943    3.2416    0.1947 H   0  0  0  0  0  0  0  0  0  0  0  0
    8.1148    0.0929    0.0397 H   0  0  0  0  0  0  0  0  0  0  0  0
    6.9663   -0.2983    1.3387 H   0  0  0  0  0  0  0  0  0  0  0  0
    6.7665   -1.0299   -0.2443 H   0  0  0  0  0  0  0  0  0  0  0  0
    7.2946    1.3073   -1.9926 H   0  0  0  0  0  0  0  0  0  0  0  0
    5.8035    2.2168   -2.0107 H   0  0  0  0  0  0  0  0  0  0  0  0
    5.7482    0.4693   -2.2119 H   0  0  0  0  0  0  0  0  0  0  0  0
    1.7703    3.7719   -0.8362 H   0  0  0  0  0  0  0  0  0  0  0  0
   -0.6106    4.4054   -0.8222 H   0  0  0  0  0  0  0  0  0  0  0  0
    0.8138   -1.0658    1.4978 H   0  0  0  0  0  0  0  0  0  0  0  0
   -2.0128   -2.2244   -2.6922 H   0  0  0  0  0  0  0  0  0  0  0  0
   -3.1597   -2.2174    1.4640 H   0  0  0  0  0  0  0  0  0  0  0  0
    0.0060   -3.4967   -2.1373 H   0  0  0  0  0  0  0  0  0  0  0  0
   -1.1459   -3.4911    2.0271 H   0  0  0  0  0  0  0  0  0  0  0  0
    0.3318   -6.6353    1.0878 H   0  0  0  0  0  0  0  0  0  0  0  0
    0.7917   -6.6350   -0.5715 H   0  0  0  0  0  0  0  0  0  0  0  0
  1  6  2  0  0  0  0
  1  7  2  0  0  0  0
  1 12  1  0  0  0  0
  1 33  1  0  0  0  0
  2 13  1  0  0  0  0
  2 29  1  0  0  0  0
  3 21  2  0  0  0  0
  4 22  2  0  0  0  0
  5 29  2  0  0  0  0
  8 14  1  0  0  0  0
  8 18  1  0  0  0  0
  8 36  1  0  0  0  0
  9 11  1  0  0  0  0
  9 16  1  0  0  0  0
  9 29  1  0  0  0  0
 10 15  1  0  0  0  0
 10 19  1  0  0  0  0
 10 40  1  0  0  0  0
 11 30  2  0  0  0  0
 12 57  1  0  0  0  0
 12 58  1  0  0  0  0
 13 23  1  0  0  0  0
 13 24  1  0  0  0  0
 13 25  1  0  0  0  0
 14 15  2  0  0  0  0
 14 21  1  0  0  0  0
 15 22  1  0  0  0  0
 16 17  2  0  0  0  0
 16 26  1  0  0  0  0
 17 20  1  0  0  0  0
 17 30  1  0  0  0  0
 18 20  2  0  0  0  0
 18 27  1  0  0  0  0
 19 28  1  0  0  0  0
 19 37  1  0  0  0  0
 19 38  1  0  0  0  0
 20 39  1  0  0  0  0
 21 22  1  0  0  0  0
 23 41  1  0  0  0  0
 23 42  1  0  0  0  0
 23 43  1  0  0  0  0
 24 44  1  0  0  0  0
 24 45  1  0  0  0  0
 24 46  1  0  0  0  0
 25 47  1  0  0  0  0
 25 48  1  0  0  0  0
 25 49  1  0  0  0  0
 26 27  2  0  0  0  0
 26 50  1  0  0  0  0
 27 51  1  0  0  0  0
 28 31  2  0  0  0  0
 28 32  1  0  0  0  0
 30 52  1  0  0  0  0
 31 34  1  0  0  0  0
 31 53  1  0  0  0  0
 32 35  2  0  0  0  0
 32 54  1  0  0  0  0
 33 34  2  0  0  0  0
 33 35  1  0  0  0  0
 34 55  1  0  0  0  0
 35 56  1  0  0  0  0
M  END
> <PUBCHEM_COMPOUND_CID>
49830885

> <PUBCHEM_CONFORMER_RMSD>
1.4

> <PUBCHEM_CONFORMER_DIVERSEORDER>
1
62
17
35
50
98
40
94
73
53
83
105
80
39
67
76
32
96
69
95
13
68
85
11
26
41
70
77
22
44
64
14
63
92
100
90
21
79
74
60
27
101
38
43
102
42
56
29
51
104
52
58
66
81
46
84
86
93
47
103
2
15
54
88
87
65
97
45
72
36
24
18
78
12
55
33
91
61
7
25
8
57
49
71
6
75
82
19
16
30
31
28
5
59
23
89
34
3
99
20
48
37
10
9
106
4

> <PUBCHEM_MMFF94_PARTIAL_CHARGES>
43
1 1.45
10 -0.87
11 -0.71
12 -0.98
13 0.28
14 0.03
15 0.03
16 -0.15
18 0.1
19 0.51
2 -0.43
20 -0.15
21 0.64
22 0.64
26 -0.15
27 -0.15
28 -0.14
29 0.73
3 -0.57
30 0.14
31 -0.15
32 -0.15
33 -0.01
34 -0.15
35 -0.15
36 0.4
39 0.15
4 -0.57
40 0.4
5 -0.57
50 0.15
51 0.15
52 0.15
53 0.15
54 0.15
55 0.15
56 0.15
57 0.42
58 0.42
6 -0.65
7 -0.65
8 -0.6
9 0.56

> <PUBCHEM_EFFECTIVE_ROTOR_COUNT>
9

> <PUBCHEM_PHARMACOPHORE_FEATURES>
16
1 10 cation
1 10 donor
1 11 acceptor
1 12 donor
1 3 acceptor
1 4 acceptor
1 5 acceptor
1 6 acceptor
1 7 acceptor
1 8 cation
1 8 donor
4 13 23 24 25 hydrophobe
4 14 15 21 22 rings
5 9 11 16 17 30 rings
6 16 17 18 20 26 27 rings
6 28 31 32 33 34 35 rings

> <PUBCHEM_HEAVY_ATOM_COUNT>
35

> <PUBCHEM_ATOM_DEF_STEREO_COUNT>
0

> <PUBCHEM_ATOM_UDEF_STEREO_COUNT>
0

> <PUBCHEM_BOND_DEF_STEREO_COUNT>
0

> <PUBCHEM_BOND_UDEF_STEREO_COUNT>
0

> <PUBCHEM_ISOTOPIC_ATOM_COUNT>
0

> <PUBCHEM_COMPONENT_COUNT>
1

> <PUBCHEM_CACTVS_TAUTO_COUNT>
8

> <PUBCHEM_CONFORMER_ID>
02F85BE500000001

> <PUBCHEM_MMFF94_ENERGY>
87.0337

> <PUBCHEM_FEATURE_SELFOVERLAP>
81.305

> <PUBCHEM_SHAPE_FINGERPRINT>
10940486 97 18117842328934992324
11014199 57 17401485343340893386
11135926 11 18336820880028502429
11136131 41 18190172404082553723
11513181 2 18131347479729440207
11756154 5 17901662988353224539
12058002 1 17486529020413076136
12156800 1 17534946066686768287
12422481 6 17476596968538510251
1361 2 18337395920704764880
14251757 5 18120375625437126926
14279260 333 18040706014080049754
14289585 56 17385991867675861548
14659021 117 17909531097877233234
14725015 67 18197776820580206687
14790565 3 18410009935982087072
14866123 147 18339924939061465367
15274700 242 18115569540069247282
15297060 5 18343023293903346656
15439362 3 18192993708634034457
15927050 60 18341612590620910559
16112460 7 18270404884505293312
16628084 112 18115582622661222298
16719943 64 18410291453824120086
17627616 140 18336542694875213319
19311894 1 18121777494083429586
19958102 18 18335692858829419460
21133410 221 15600545216307477826
21133665 82 18413109477258555670
21360443 120 18335986389214989415
21796203 349 17116954347027832131
22440779 20 16159082241514018506
23516275 137 18119550746802744880
23559900 14 18200584929822270840
3383291 50 18194957668134498787
4073 2 18268708484641863520
5080951 261 17972850783422047728
5085150 59 18343291571015573786
5265222 85 18338803419536442245
57676310 188 18337112268406865062
6669772 16 18338802204007495374

> <PUBCHEM_SHAPE_MULTIPOLES>
664.01
13.77
7.07
1.19
14.38
10.27
0.16
-12.81
0.88
-2.08
-0.82
0.03
0.6
-1.54

> <PUBCHEM_SHAPE_SELFOVERLAP>
1438.167

> <PUBCHEM_SHAPE_VOLUME>
366.5

> <PUBCHEM_COORDINATE_TYPE>
2
5
10

$$$$
