23647262
  -OEChem-10062121573D

 39 41  0     0  0  0  0  0  0999 V2000
   -5.1398   -2.2697    1.2713 O   0  0  0  0  0  0  0  0  0  0  0  0
   -3.9732   -0.4794    2.0463 O   0  0  0  0  0  0  0  0  0  0  0  0
    6.0054   -2.0329   -0.1549 O   0  5  0  0  0  0  0  0  0  0  0  0
    4.3951   -3.0720    0.9159 O   0  0  0  0  0  0  0  0  0  0  0  0
   -2.6932    0.7644   -0.0846 N   0  0  0  0  0  0  0  0  0  0  0  0
    1.6684    2.5619    0.0323 N   0  0  0  0  0  0  0  0  0  0  0  0
   -0.4909    1.6456   -0.0250 N   0  0  0  0  0  0  0  0  0  0  0  0
   -0.1564    4.0308   -0.1019 N   0  0  0  0  0  0  0  0  0  0  0  0
    4.8550   -2.0530    0.3460 N   0  3  0  0  0  0  0  0  0  0  0  0
   -2.5585   -0.5632   -0.5486 C   0  0  0  0  0  0  0  0  0  0  0  0
   -3.2417   -1.6108    0.0692 C   0  0  0  0  0  0  0  0  0  0  0  0
    2.4668    1.4055    0.1107 C   0  0  0  0  0  0  0  0  0  0  0  0
   -1.8201    1.8674   -0.0900 C   0  0  0  0  0  0  0  0  0  0  0  0
   -1.7287   -0.8196   -1.6403 C   0  0  0  0  0  0  0  0  0  0  0  0
    0.2714    2.7557   -0.0349 C   0  0  0  0  0  0  0  0  0  0  0  0
   -3.0953   -2.9145   -0.4049 C   0  0  0  0  0  0  0  0  0  0  0  0
    3.7483    1.4039   -0.4402 C   0  0  0  0  0  0  0  0  0  0  0  0
    1.9764    0.2608    0.7393 C   0  0  0  0  0  0  0  0  0  0  0  0
    4.0491   -0.8868    0.2657 C   0  0  0  0  0  0  0  0  0  0  0  0
   -1.5825   -2.1234   -2.1143 C   0  0  0  0  0  0  0  0  0  0  0  0
   -2.3851    3.1243   -0.1618 C   0  0  0  0  0  0  0  0  0  0  0  0
    4.5394    0.2580   -0.3627 C   0  0  0  0  0  0  0  0  0  0  0  0
    2.7676   -0.8853    0.8169 C   0  0  0  0  0  0  0  0  0  0  0  0
   -2.2657   -3.1707   -1.4966 C   0  0  0  0  0  0  0  0  0  0  0  0
   -1.4959    4.1794   -0.1645 C   0  0  0  0  0  0  0  0  0  0  0  0
   -4.1160   -1.3763    1.2115 C   0  0  0  0  0  0  0  0  0  0  0  0
   -3.5358    0.9303    0.4581 H   0  0  0  0  0  0  0  0  0  0  0  0
   -1.1949   -0.0204   -2.1476 H   0  0  0  0  0  0  0  0  0  0  0  0
    2.1873    3.4223   -0.1156 H   0  0  0  0  0  0  0  0  0  0  0  0
    4.1412    2.2894   -0.9333 H   0  0  0  0  0  0  0  0  0  0  0  0
    1.0038    0.2306    1.2191 H   0  0  0  0  0  0  0  0  0  0  0  0
   -3.6027   -3.7546    0.0621 H   0  0  0  0  0  0  0  0  0  0  0  0
   -0.9380   -2.3229   -2.9654 H   0  0  0  0  0  0  0  0  0  0  0  0
   -3.4542    3.2885   -0.2143 H   0  0  0  0  0  0  0  0  0  0  0  0
    5.5326    0.2932   -0.8029 H   0  0  0  0  0  0  0  0  0  0  0  0
    2.3568   -1.7559    1.3221 H   0  0  0  0  0  0  0  0  0  0  0  0
   -2.1494   -4.1860   -1.8643 H   0  0  0  0  0  0  0  0  0  0  0  0
   -1.8464    5.2045   -0.2189 H   0  0  0  0  0  0  0  0  0  0  0  0
   -5.7236   -2.1051    2.0423 H   0  0  0  0  0  0  0  0  0  0  0  0
  1 26  1  0  0  0  0
  1 39  1  0  0  0  0
  2 26  2  0  0  0  0
  3  9  1  0  0  0  0
  4  9  2  0  0  0  0
  5 10  1  0  0  0  0
  5 13  1  0  0  0  0
  5 27  1  0  0  0  0
  6 12  1  0  0  0  0
  6 15  1  0  0  0  0
  6 29  1  0  0  0  0
  7 13  2  0  0  0  0
  7 15  1  0  0  0  0
  8 15  2  0  0  0  0
  8 25  1  0  0  0  0
  9 19  1  0  0  0  0
 10 11  1  0  0  0  0
 10 14  2  0  0  0  0
 11 16  2  0  0  0  0
 11 26  1  0  0  0  0
 12 17  2  0  0  0  0
 12 18  1  0  0  0  0
 13 21  1  0  0  0  0
 14 20  1  0  0  0  0
 14 28  1  0  0  0  0
 16 24  1  0  0  0  0
 16 32  1  0  0  0  0
 17 22  1  0  0  0  0
 17 30  1  0  0  0  0
 18 23  2  0  0  0  0
 18 31  1  0  0  0  0
 19 22  2  0  0  0  0
 19 23  1  0  0  0  0
 20 24  2  0  0  0  0
 20 33  1  0  0  0  0
 21 25  2  0  0  0  0
 21 34  1  0  0  0  0
 22 35  1  0  0  0  0
 23 36  1  0  0  0  0
 24 37  1  0  0  0  0
 25 38  1  0  0  0  0
M  CHG  2   3  -1   9   1
M  END
> <PUBCHEM_COMPOUND_CID>
23647262

> <PUBCHEM_CONFORMER_RMSD>
0.8

> <PUBCHEM_CONFORMER_DIVERSEORDER>
1
4
85
136
93
103
154
22
41
125
119
147
52
94
20
158
50
156
70
114
39
14
18
92
100
142
108
34
83
110
127
9
150
80
101
30
23
144
35
46
138
159
61
87
31
157
79
88
59
11
48
117
7
143
106
104
6
132
58
81
145
111
120
49
40
51
69
54
89
105
72
17
63
47
36
55
42
96
71
27
109
137
76
107
5
66
153
78
43
102
38
148
25
123
21
151
82
134
141
64
13
97
90
155
68
121
115
95
112
122
126
135
86
133
113
146
62
140
65
118
45
29
139
12
152
129
116
75
77
32
98
57
2
44
160
124
130
3
74
15
53
91
24
149
28
73
131
33
16
60
8
26
99
128
19
10
56
67
84
37

> <PUBCHEM_MMFF94_PARTIAL_CHARGES>
39
1 -0.65
10 0.1
11 0.09
12 0.1
13 0.41
14 -0.15
15 0.72
16 -0.15
17 -0.15
18 -0.15
19 0.13
2 -0.57
20 -0.15
21 -0.15
22 -0.15
23 -0.15
24 -0.15
25 0.16
26 0.63
27 0.4
28 0.15
29 0.4
3 -0.52
30 0.15
31 0.15
32 0.15
33 0.15
34 0.15
35 0.15
36 0.15
37 0.15
38 0.15
39 0.5
4 -0.52
5 -0.6
6 -0.6
7 -0.62
8 -0.62
9 0.91

> <PUBCHEM_EFFECTIVE_ROTOR_COUNT>
6

> <PUBCHEM_PHARMACOPHORE_FEATURES>
12
1 1 acceptor
1 2 acceptor
1 3 acceptor
1 3 anion
1 4 acceptor
1 5 donor
1 6 donor
3 1 2 26 anion
4 6 7 8 15 cation
6 10 11 14 16 20 24 rings
6 12 17 18 19 22 23 rings
6 7 8 13 15 21 25 rings

> <PUBCHEM_HEAVY_ATOM_COUNT>
26

> <PUBCHEM_ATOM_DEF_STEREO_COUNT>
0

> <PUBCHEM_ATOM_UDEF_STEREO_COUNT>
0

> <PUBCHEM_BOND_DEF_STEREO_COUNT>
0

> <PUBCHEM_BOND_UDEF_STEREO_COUNT>
0

> <PUBCHEM_ISOTOPIC_ATOM_COUNT>
0

> <PUBCHEM_COMPONENT_COUNT>
1

> <PUBCHEM_CACTVS_TAUTO_COUNT>
13

> <PUBCHEM_CONFORMER_ID>
0168D41E00000001

> <PUBCHEM_MMFF94_ENERGY>
104.3185

> <PUBCHEM_FEATURE_SELFOVERLAP>
61.035

> <PUBCHEM_SHAPE_FINGERPRINT>
10483366 6 18054759877238140397
10616163 171 18267019462607588070
10928967 22 18340773740421217830
11014199 57 18268699670925685062
11578080 2 17702082837509381113
12107183 9 18269290092080087107
12403259 327 15769228270181830393
12422481 6 18057344819894230291
12553582 1 18266732665670512468
12633257 1 17203330043433120946
13533116 47 17548417459544852991
13726171 33 18056510346689010612
138480 1 15746411848863995428
14279260 333 17897443892361877682
14844126 61 18266446633976165858
14863182 85 17759800738500499780
14866123 147 18267021653257622385
15042514 8 18337676308749444049
15537594 2 18340215210046646590
16110190 28 18272092712279358946
16719943 64 17835231256033016164
17492 89 18335702715753015490
17809404 112 17836322224828207926
19930381 70 17832417970755169379
20291156 8 18339919445307741988
20775530 9 18261100898805257774
23379529 103 18343027645164367574
23598288 3 18337107873985187549
23728640 28 18197487437872475733
3737641 26 18337956804615477340
44880168 125 17489598831218235190
463206 1 18119531191764235338
508706 21 18129662972376225630
513202 73 18337401426336413067
5309563 4 18194682806943154966
56633871 153 18271811263088925991
6422251 121 18114179744049681667
7097593 13 17911523417574228421
7970288 3 18336548334025342066
86090 222 16735799132761046443

> <PUBCHEM_SHAPE_MULTIPOLES>
486.69
10.31
5.18
1.34
9.01
3.55
-0.09
-10.05
2.86
-1.4
-0.71
-1.52
-1.05
-0.72

> <PUBCHEM_SHAPE_SELFOVERLAP>
1062.823

> <PUBCHEM_SHAPE_VOLUME>
260.4

> <PUBCHEM_COORDINATE_TYPE>
2
5
10

$$$$
