49830578
  -OEChem-10052120443D

 42 45  0     0  0  0  0  0  0999 V2000
    2.3961    3.0141    1.3454 O   0  0  0  0  0  0  0  0  0  0  0  0
   -4.0262    1.3889   -1.8198 O   0  0  0  0  0  0  0  0  0  0  0  0
   -2.2161    0.0303   -2.2405 O   0  0  0  0  0  0  0  0  0  0  0  0
    1.9264   -1.0406   -0.1478 N   0  0  0  0  0  0  0  0  0  0  0  0
    3.6479    1.3601    0.5246 N   0  0  0  0  0  0  0  0  0  0  0  0
    0.9433   -0.1714    0.3324 C   0  0  0  0  0  0  0  0  0  0  0  0
    1.1380    1.1270    0.8046 C   0  0  0  0  0  0  0  0  0  0  0  0
   -1.4767    0.0427    0.7723 C   0  0  0  0  0  0  0  0  0  0  0  0
   -0.3797   -0.6897    0.3277 C   0  0  0  0  0  0  0  0  0  0  0  0
    3.3078   -0.9551   -0.3183 C   0  0  0  0  0  0  0  0  0  0  0  0
   -2.8025   -0.5335    0.7469 C   0  0  0  0  0  0  0  0  0  0  0  0
    4.0962    0.1457   -0.0096 C   0  0  0  0  0  0  0  0  0  0  0  0
    0.0083    1.8590    1.2538 C   0  0  0  0  0  0  0  0  0  0  0  0
   -1.2803    1.3268    1.2386 C   0  0  0  0  0  0  0  0  0  0  0  0
    2.4252    1.8608    0.8974 C   0  0  0  0  0  0  0  0  0  0  0  0
   -3.6293   -0.3958   -0.3680 C   0  0  0  0  0  0  0  0  0  0  0  0
    3.9489   -2.1001   -0.8544 C   0  0  0  0  0  0  0  0  0  0  0  0
    5.4901    0.0847   -0.2385 C   0  0  0  0  0  0  0  0  0  0  0  0
   -3.2504   -1.2371    1.8649 C   0  0  0  0  0  0  0  0  0  0  0  0
    5.3237   -2.1516   -1.0768 C   0  0  0  0  0  0  0  0  0  0  0  0
   -4.9041   -0.9618   -0.3649 C   0  0  0  0  0  0  0  0  0  0  0  0
    6.0999   -1.0505   -0.7665 C   0  0  0  0  0  0  0  0  0  0  0  0
   -4.5254   -1.8030    1.8679 C   0  0  0  0  0  0  0  0  0  0  0  0
   -5.3523   -1.6655    0.7530 C   0  0  0  0  0  0  0  0  0  0  0  0
   -3.2006    0.3318   -1.5572 C   0  0  0  0  0  0  0  0  0  0  0  0
   -3.7082    2.1836   -2.9673 C   0  0  0  0  0  0  0  0  0  0  0  0
   -0.5449   -1.7043   -0.0393 H   0  0  0  0  0  0  0  0  0  0  0  0
    1.5508   -1.9396   -0.4398 H   0  0  0  0  0  0  0  0  0  0  0  0
    0.1061    2.8755    1.6314 H   0  0  0  0  0  0  0  0  0  0  0  0
   -2.1097    1.9328    1.5942 H   0  0  0  0  0  0  0  0  0  0  0  0
    4.3943    2.0366    0.6754 H   0  0  0  0  0  0  0  0  0  0  0  0
    3.3598   -2.9812   -1.1075 H   0  0  0  0  0  0  0  0  0  0  0  0
    6.1238    0.9387   -0.0024 H   0  0  0  0  0  0  0  0  0  0  0  0
   -2.6201   -1.3550    2.7433 H   0  0  0  0  0  0  0  0  0  0  0  0
    5.7779   -3.0470   -1.4892 H   0  0  0  0  0  0  0  0  0  0  0  0
   -5.5594   -0.8673   -1.2272 H   0  0  0  0  0  0  0  0  0  0  0  0
    7.1725   -1.0688   -0.9317 H   0  0  0  0  0  0  0  0  0  0  0  0
   -4.8743   -2.3511    2.7383 H   0  0  0  0  0  0  0  0  0  0  0  0
   -6.3445   -2.1070    0.7552 H   0  0  0  0  0  0  0  0  0  0  0  0
   -2.7169    2.6321   -2.8521 H   0  0  0  0  0  0  0  0  0  0  0  0
   -3.7530    1.5723   -3.8735 H   0  0  0  0  0  0  0  0  0  0  0  0
   -4.4499    2.9829   -3.0442 H   0  0  0  0  0  0  0  0  0  0  0  0
  1 15  2  0  0  0  0
  2 25  1  0  0  0  0
  2 26  1  0  0  0  0
  3 25  2  0  0  0  0
  4  6  1  0  0  0  0
  4 10  1  0  0  0  0
  4 28  1  0  0  0  0
  5 12  1  0  0  0  0
  5 15  1  0  0  0  0
  5 31  1  0  0  0  0
  6  7  2  0  0  0  0
  6  9  1  0  0  0  0
  7 13  1  0  0  0  0
  7 15  1  0  0  0  0
  8  9  2  0  0  0  0
  8 11  1  0  0  0  0
  8 14  1  0  0  0  0
  9 27  1  0  0  0  0
 10 12  1  0  0  0  0
 10 17  2  0  0  0  0
 11 16  1  0  0  0  0
 11 19  2  0  0  0  0
 12 18  2  0  0  0  0
 13 14  2  0  0  0  0
 13 29  1  0  0  0  0
 14 30  1  0  0  0  0
 16 21  2  0  0  0  0
 16 25  1  0  0  0  0
 17 20  1  0  0  0  0
 17 32  1  0  0  0  0
 18 22  1  0  0  0  0
 18 33  1  0  0  0  0
 19 23  1  0  0  0  0
 19 34  1  0  0  0  0
 20 22  2  0  0  0  0
 20 35  1  0  0  0  0
 21 24  1  0  0  0  0
 21 36  1  0  0  0  0
 22 37  1  0  0  0  0
 23 24  2  0  0  0  0
 23 38  1  0  0  0  0
 24 39  1  0  0  0  0
 26 40  1  0  0  0  0
 26 41  1  0  0  0  0
 26 42  1  0  0  0  0
M  END
> <PUBCHEM_COMPOUND_CID>
49830578

> <PUBCHEM_CONFORMER_RMSD>
0.8

> <PUBCHEM_CONFORMER_DIVERSEORDER>
1
7
10
8
9
2
6
3
4
5

> <PUBCHEM_MMFF94_PARTIAL_CHARGES>
37
1 -0.57
10 0.1
12 0.12
13 -0.15
14 -0.15
15 0.54
16 0.09
17 -0.15
18 -0.15
19 -0.15
2 -0.43
20 -0.15
21 -0.15
22 -0.15
23 -0.15
24 -0.15
25 0.63
26 0.28
27 0.15
28 0.4
29 0.15
3 -0.57
30 0.15
31 0.37
32 0.15
33 0.15
34 0.15
35 0.15
36 0.15
37 0.15
38 0.15
39 0.15
4 -0.6
5 -0.55
6 0.1
7 0.09
9 -0.15

> <PUBCHEM_EFFECTIVE_ROTOR_COUNT>
3.4

> <PUBCHEM_PHARMACOPHORE_FEATURES>
9
1 1 acceptor
1 3 acceptor
1 4 cation
1 4 donor
1 5 donor
6 10 12 17 18 20 22 rings
6 11 16 19 21 23 24 rings
6 6 7 8 9 13 14 rings
7 4 5 6 7 10 12 15 rings

> <PUBCHEM_HEAVY_ATOM_COUNT>
26

> <PUBCHEM_ATOM_DEF_STEREO_COUNT>
0

> <PUBCHEM_ATOM_UDEF_STEREO_COUNT>
0

> <PUBCHEM_BOND_DEF_STEREO_COUNT>
0

> <PUBCHEM_BOND_UDEF_STEREO_COUNT>
0

> <PUBCHEM_ISOTOPIC_ATOM_COUNT>
0

> <PUBCHEM_COMPONENT_COUNT>
1

> <PUBCHEM_CACTVS_TAUTO_COUNT>
7

> <PUBCHEM_CONFORMER_ID>
02F85AB200000001

> <PUBCHEM_MMFF94_ENERGY>
115.689

> <PUBCHEM_FEATURE_SELFOVERLAP>
45.684

> <PUBCHEM_SHAPE_FINGERPRINT>
10369192 42 17830456442333477396
10622 236 16843862356627024591
10670039 82 16732978704524407974
11049842 53 16808666813159034673
12166972 35 18260559917994385342
12236239 1 16917073290969824003
12390115 104 17823126827798419573
12403259 415 18333446573110332368
12422481 6 16414655764588338399
12553582 1 17988641874582498998
12616971 3 17131835390895784276
12633257 1 14549019883633725827
13544653 18 18201447947733359376
13617811 41 16950280754548909019
13673619 4 18261125109783857939
13782708 43 18260547848335242163
14251757 17 18334289864132084282
14294032 229 16733536110745994405
14840074 17 17418098715128673294
14910302 57 18187925140091390475
15131766 46 17485638583888452585
15183329 4 14996280293797417650
15537594 2 17703796950566882006
15961568 22 16952253363628251012
17349148 13 17132114649785486390
17357779 13 18340762659516207740
17492 89 17983590611291948006
1813 80 17703247147403066436
19489759 90 17022624177990238906
200 152 17846498114859750896
20028762 73 17561086920903404254
20645477 70 18341610464622245912
20693207 138 18334300898087846235
21033648 29 18335126618319313904
21033650 10 17095807628969713704
21267235 1 18058746740744473038
22182313 1 18336534010303888168
22393880 68 18187640280369142762
2297311 6 17458349680206983643
23402539 116 17988928812731035114
23522609 53 17556620717988653928
23557571 272 17967245429729508693
23559900 14 18041282161671392539
314194 84 17988927760543467654
34797466 226 17459195251291866773
351380 3 17489311880084088750
3882209 13 17256509835036340550
46194498 28 18042127707862574988
5281201 14 18333449867403087020
5283173 99 17895192164902362884
5924683 9 13110668459365360205
6034566 193 8645612216380985130
6608658 132 15791721967620543967
7808743 9 17023734594835476901
7970288 3 18131356293039540070

> <PUBCHEM_SHAPE_MULTIPOLES>
507.5
13.25
2.44
2.02
7.4
0.82
-1.03
-6.59
-3.64
0.2
0.11
-2.6
0.99
4.04

> <PUBCHEM_SHAPE_SELFOVERLAP>
1132.449

> <PUBCHEM_SHAPE_VOLUME>
266.7

> <PUBCHEM_COORDINATE_TYPE>
2
5
10

$$$$
