9943194
  -OEChem-10062122033D

 33 35  0     0  0  0  0  0  0999 V2000
   -1.8033    1.7425    0.0563 N   0  0  0  0  0  0  0  0  0  0  0  0
    0.3429    0.7975   -0.0205 N   0  0  0  0  0  0  0  0  0  0  0  0
    0.0462    3.1843    0.1287 N   0  0  0  0  0  0  0  0  0  0  0  0
   -2.5285   -2.9705    0.9897 N   0  0  0  0  0  0  0  0  0  0  0  0
    4.5369   -1.3439    0.4456 N   0  0  0  0  0  0  0  0  0  0  0  0
   -2.6236    0.5969   -0.0062 C   0  0  0  0  0  0  0  0  0  0  0  0
    1.6767    1.0006   -0.0192 C   0  0  0  0  0  0  0  0  0  0  0  0
    2.4788   -0.1966   -0.0986 C   0  0  0  0  0  0  0  0  0  0  0  0
   -0.4056    1.9163    0.0545 C   0  0  0  0  0  0  0  0  0  0  0  0
   -2.1726   -0.6136    0.5202 C   0  0  0  0  0  0  0  0  0  0  0  0
   -3.8860    0.6744   -0.5945 C   0  0  0  0  0  0  0  0  0  0  0  0
   -2.9840   -1.7465    0.4582 C   0  0  0  0  0  0  0  0  0  0  0  0
    2.2623    2.2481    0.0526 C   0  0  0  0  0  0  0  0  0  0  0  0
   -4.6974   -0.4586   -0.6563 C   0  0  0  0  0  0  0  0  0  0  0  0
   -4.2464   -1.6689   -0.1301 C   0  0  0  0  0  0  0  0  0  0  0  0
    2.0156   -1.3285   -0.7610 C   0  0  0  0  0  0  0  0  0  0  0  0
    1.3891    3.3142    0.1255 C   0  0  0  0  0  0  0  0  0  0  0  0
    3.7355   -0.2559    0.4829 C   0  0  0  0  0  0  0  0  0  0  0  0
    2.8110   -2.4674   -0.8207 C   0  0  0  0  0  0  0  0  0  0  0  0
    4.0525   -2.4243   -0.2070 C   0  0  0  0  0  0  0  0  0  0  0  0
   -2.3057    2.6217   -0.0219 H   0  0  0  0  0  0  0  0  0  0  0  0
   -1.2140   -0.6965    1.0231 H   0  0  0  0  0  0  0  0  0  0  0  0
   -4.2488    1.6113   -1.0093 H   0  0  0  0  0  0  0  0  0  0  0  0
    3.3302    2.4235    0.0337 H   0  0  0  0  0  0  0  0  0  0  0  0
   -5.6802   -0.3982   -1.1147 H   0  0  0  0  0  0  0  0  0  0  0  0
   -4.8880   -2.5446   -0.1847 H   0  0  0  0  0  0  0  0  0  0  0  0
    1.0436   -1.3504   -1.2476 H   0  0  0  0  0  0  0  0  0  0  0  0
    1.7559    4.3336    0.1800 H   0  0  0  0  0  0  0  0  0  0  0  0
    4.1656    0.5717    1.0386 H   0  0  0  0  0  0  0  0  0  0  0  0
    2.4712   -3.3600   -1.3333 H   0  0  0  0  0  0  0  0  0  0  0  0
   -3.1166   -3.7921    0.9445 H   0  0  0  0  0  0  0  0  0  0  0  0
   -1.6124   -3.0291    1.4142 H   0  0  0  0  0  0  0  0  0  0  0  0
    4.7114   -3.2861   -0.2257 H   0  0  0  0  0  0  0  0  0  0  0  0
  1  6  1  0  0  0  0
  1  9  1  0  0  0  0
  1 21  1  0  0  0  0
  2  7  2  0  0  0  0
  2  9  1  0  0  0  0
  3  9  2  0  0  0  0
  3 17  1  0  0  0  0
  4 12  1  0  0  0  0
  4 31  1  0  0  0  0
  4 32  1  0  0  0  0
  5 18  1  0  0  0  0
  5 20  2  0  0  0  0
  6 10  1  0  0  0  0
  6 11  2  0  0  0  0
  7  8  1  0  0  0  0
  7 13  1  0  0  0  0
  8 16  1  0  0  0  0
  8 18  2  0  0  0  0
 10 12  2  0  0  0  0
 10 22  1  0  0  0  0
 11 14  1  0  0  0  0
 11 23  1  0  0  0  0
 12 15  1  0  0  0  0
 13 17  2  0  0  0  0
 13 24  1  0  0  0  0
 14 15  2  0  0  0  0
 14 25  1  0  0  0  0
 15 26  1  0  0  0  0
 16 19  2  0  0  0  0
 16 27  1  0  0  0  0
 17 28  1  0  0  0  0
 18 29  1  0  0  0  0
 19 20  1  0  0  0  0
 19 30  1  0  0  0  0
 20 33  1  0  0  0  0
M  END
> <PUBCHEM_COMPOUND_CID>
9943194

> <PUBCHEM_CONFORMER_RMSD>
0.6

> <PUBCHEM_CONFORMER_DIVERSEORDER>
1
61
65
13
46
72
17
28
12
81
35
24
45
66
40
25
47
80
69
60
4
9
3
10
27
48
70
44
62
83
26
49
64
36
59
11
2
73
18
43
19
42
32
55
50
8
14
34
54
37
31
22
79
41
7
67
20
30
76
52
16
29
15
71
82
33
39
75
21
6
78
5
38
68
85
23
84
51
77
63
86
74
56
57
58
53

> <PUBCHEM_MMFF94_PARTIAL_CHARGES>
32
1 -0.6
10 -0.15
11 -0.15
12 0.1
13 -0.15
14 -0.15
15 -0.15
16 -0.15
17 0.16
18 0.16
19 -0.15
2 -0.62
20 0.16
21 0.4
22 0.15
23 0.15
24 0.15
25 0.15
26 0.15
27 0.15
28 0.15
29 0.15
3 -0.62
30 0.15
31 0.4
32 0.4
33 0.15
4 -0.9
5 -0.62
6 0.1
7 0.31
9 0.72

> <PUBCHEM_EFFECTIVE_ROTOR_COUNT>
3

> <PUBCHEM_PHARMACOPHORE_FEATURES>
9
1 1 donor
1 2 acceptor
1 4 cation
1 4 donor
1 5 acceptor
4 1 2 3 9 cation
6 2 3 7 9 13 17 rings
6 5 8 16 18 19 20 rings
6 6 10 11 12 14 15 rings

> <PUBCHEM_HEAVY_ATOM_COUNT>
20

> <PUBCHEM_ATOM_DEF_STEREO_COUNT>
0

> <PUBCHEM_ATOM_UDEF_STEREO_COUNT>
0

> <PUBCHEM_BOND_DEF_STEREO_COUNT>
0

> <PUBCHEM_BOND_UDEF_STEREO_COUNT>
0

> <PUBCHEM_ISOTOPIC_ATOM_COUNT>
0

> <PUBCHEM_COMPONENT_COUNT>
1

> <PUBCHEM_CACTVS_TAUTO_COUNT>
3

> <PUBCHEM_CONFORMER_ID>
0097B89A00000001

> <PUBCHEM_MMFF94_ENERGY>
80.2065

> <PUBCHEM_FEATURE_SELFOVERLAP>
45.671

> <PUBCHEM_SHAPE_FINGERPRINT>
10616163 171 17905048401982338219
10693767 8 17983552360497891855
1100329 8 16681191410598730291
116883 192 18339644430067339420
12107183 9 18271259205710222313
12363563 72 18411427176178640014
12506688 2 18341617039768880336
12553582 1 18268170693814921550
12596602 18 15194987375772937678
12633257 1 18411710863411531283
12839892 36 17835504299968112136
13533116 47 18271526520089722915
13544592 145 18260539027231454397
138480 1 18411701023414998996
14251705 54 18339084894554792266
14790565 3 17403744341467694904
14866123 147 17908707228913963129
15352361 1 18411698751276851830
15422964 175 18341890732602240084
15635459 17 18265055910802300459
15927050 60 17621596551285360212
17492 89 18267583688198711415
19141452 34 18127134061183060881
19591789 44 17115517238370680313
20261772 1 17846490431343042030
20403669 9 18411419471039219343
20645477 70 18264763432177243725
21452121 199 18409163303649976008
221490 88 18263649622186660058
23559900 14 18338509845668279977
3004659 81 18186520973553552150
314173 41 18335422361171951370
335352 9 18338515240811718853
33824 294 18052257585450396537
3421961 26 18341047501277656624
4280585 95 18334571296834231426
6433294 58 18193841667720961659
7364860 26 18268147732925369688
7987 15 18191611798115811235
81228 2 17910974451570092624
8809292 202 18336549313287674651
9709674 26 18336263569635925595

> <PUBCHEM_SHAPE_MULTIPOLES>
386.69
8.96
3.81
0.79
2.88
1.29
0.02
-6.43
0.48
-1.79
-0.21
0.11
-0.3
0.83

> <PUBCHEM_SHAPE_SELFOVERLAP>
849.403

> <PUBCHEM_SHAPE_VOLUME>
202.2

> <PUBCHEM_COORDINATE_TYPE>
2
5
10

$$$$
