46191454
  -OEChem-10052115153D

 57 59  0     0  0  0  0  0  0999 V2000
   -3.7466    1.8107   -0.3243 O   0  0  0  0  0  0  0  0  0  0  0  0
    5.1031    0.4744    0.5039 O   0  0  0  0  0  0  0  0  0  0  0  0
   -1.5068    1.2248   -0.1147 N   0  0  0  0  0  0  0  0  0  0  0  0
   -5.2305   -2.5572    0.2715 N   0  0  0  0  0  0  0  0  0  0  0  0
    1.6431    2.9700    0.1946 N   0  0  0  0  0  0  0  0  0  0  0  0
    2.7011    2.1257    0.2879 N   0  0  0  0  0  0  0  0  0  0  0  0
    2.8770   -0.2666    0.2903 N   0  0  0  0  0  0  0  0  0  0  0  0
   -0.9551    2.6417   -0.0540 C   0  0  0  0  0  0  0  0  0  0  0  0
   -3.2323   -0.4979   -0.2909 C   0  0  0  0  0  0  0  0  0  0  0  0
    0.4772    2.3010    0.0797 C   0  0  0  0  0  0  0  0  0  0  0  0
   -0.4465    0.1575   -0.0210 C   0  0  0  0  0  0  0  0  0  0  0  0
    0.7615    0.9718    0.0980 C   0  0  0  0  0  0  0  0  0  0  0  0
   -2.8657    0.9532   -0.2462 C   0  0  0  0  0  0  0  0  0  0  0  0
   -3.4864   -1.0226    1.1209 C   0  0  0  0  0  0  0  0  0  0  0  0
   -4.4751   -0.6856   -1.1594 C   0  0  0  0  0  0  0  0  0  0  0  0
   -4.0158   -2.4575    1.0925 C   0  0  0  0  0  0  0  0  0  0  0  0
   -4.9726   -2.1312   -1.1111 C   0  0  0  0  0  0  0  0  0  0  0  0
   -1.4623    3.3941    1.1767 C   0  0  0  0  0  0  0  0  0  0  0  0
   -1.2218    3.4084   -1.3501 C   0  0  0  0  0  0  0  0  0  0  0  0
    2.1452    0.9016    0.2278 C   0  0  0  0  0  0  0  0  0  0  0  0
   -5.7544   -3.9226    0.2969 C   0  0  0  0  0  0  0  0  0  0  0  0
    4.2758   -0.4274    0.4211 C   0  0  0  0  0  0  0  0  0  0  0  0
    4.6776   -1.8987    0.4156 C   0  0  0  0  0  0  0  0  0  0  0  0
    6.0862   -2.1573   -0.1411 C   0  0  0  0  0  0  0  0  0  0  0  0
    6.1774   -1.6665   -1.5874 C   0  0  0  0  0  0  0  0  0  0  0  0
    6.4464   -3.6437   -0.0773 C   0  0  0  0  0  0  0  0  0  0  0  0
   -2.4421   -1.0923   -0.7578 H   0  0  0  0  0  0  0  0  0  0  0  0
   -0.6213   -0.4655    0.8572 H   0  0  0  0  0  0  0  0  0  0  0  0
   -0.4462   -0.4351   -0.9394 H   0  0  0  0  0  0  0  0  0  0  0  0
   -2.5753   -0.9862    1.7269 H   0  0  0  0  0  0  0  0  0  0  0  0
   -4.2137   -0.3780    1.6337 H   0  0  0  0  0  0  0  0  0  0  0  0
   -5.2900   -0.0283   -0.8273 H   0  0  0  0  0  0  0  0  0  0  0  0
   -4.2552   -0.4068   -2.1974 H   0  0  0  0  0  0  0  0  0  0  0  0
   -3.2335   -3.1314    0.7189 H   0  0  0  0  0  0  0  0  0  0  0  0
   -4.2397   -2.7585    2.1232 H   0  0  0  0  0  0  0  0  0  0  0  0
   -4.2377   -2.7899   -1.5927 H   0  0  0  0  0  0  0  0  0  0  0  0
   -5.8976   -2.1935   -1.6973 H   0  0  0  0  0  0  0  0  0  0  0  0
   -1.2986    2.8178    2.0953 H   0  0  0  0  0  0  0  0  0  0  0  0
   -0.9468    4.3545    1.2935 H   0  0  0  0  0  0  0  0  0  0  0  0
   -2.5352    3.6014    1.1094 H   0  0  0  0  0  0  0  0  0  0  0  0
   -2.2883    3.6159   -1.4842 H   0  0  0  0  0  0  0  0  0  0  0  0
   -0.8868    2.8424   -2.2277 H   0  0  0  0  0  0  0  0  0  0  0  0
   -0.6948    4.3696   -1.3566 H   0  0  0  0  0  0  0  0  0  0  0  0
    1.8130    3.9683    0.2174 H   0  0  0  0  0  0  0  0  0  0  0  0
   -5.0443   -4.6467   -0.1186 H   0  0  0  0  0  0  0  0  0  0  0  0
   -5.9940   -4.2238    1.3228 H   0  0  0  0  0  0  0  0  0  0  0  0
   -6.6872   -3.9874   -0.2742 H   0  0  0  0  0  0  0  0  0  0  0  0
    2.3156   -1.1135    0.2367 H   0  0  0  0  0  0  0  0  0  0  0  0
    4.6188   -2.2484    1.4536 H   0  0  0  0  0  0  0  0  0  0  0  0
    3.9453   -2.4761   -0.1624 H   0  0  0  0  0  0  0  0  0  0  0  0
    6.8183   -1.6005    0.4572 H   0  0  0  0  0  0  0  0  0  0  0  0
    6.0273   -0.5860   -1.6666 H   0  0  0  0  0  0  0  0  0  0  0  0
    7.1668   -1.8841   -2.0050 H   0  0  0  0  0  0  0  0  0  0  0  0
    5.4321   -2.1591   -2.2217 H   0  0  0  0  0  0  0  0  0  0  0  0
    5.7552   -4.2468   -0.6758 H   0  0  0  0  0  0  0  0  0  0  0  0
    7.4606   -3.8155   -0.4530 H   0  0  0  0  0  0  0  0  0  0  0  0
    6.4056   -4.0062    0.9552 H   0  0  0  0  0  0  0  0  0  0  0  0
  1 13  2  0  0  0  0
  2 22  2  0  0  0  0
  3  8  1  0  0  0  0
  3 11  1  0  0  0  0
  3 13  1  0  0  0  0
  4 16  1  0  0  0  0
  4 17  1  0  0  0  0
  4 21  1  0  0  0  0
  5  6  1  0  0  0  0
  5 10  1  0  0  0  0
  5 44  1  0  0  0  0
  6 20  2  0  0  0  0
  7 20  1  0  0  0  0
  7 22  1  0  0  0  0
  7 48  1  0  0  0  0
  8 10  1  0  0  0  0
  8 18  1  0  0  0  0
  8 19  1  0  0  0  0
  9 13  1  0  0  0  0
  9 14  1  0  0  0  0
  9 15  1  0  0  0  0
  9 27  1  0  0  0  0
 10 12  2  0  0  0  0
 11 12  1  0  0  0  0
 11 28  1  0  0  0  0
 11 29  1  0  0  0  0
 12 20  1  0  0  0  0
 14 16  1  0  0  0  0
 14 30  1  0  0  0  0
 14 31  1  0  0  0  0
 15 17  1  0  0  0  0
 15 32  1  0  0  0  0
 15 33  1  0  0  0  0
 16 34  1  0  0  0  0
 16 35  1  0  0  0  0
 17 36  1  0  0  0  0
 17 37  1  0  0  0  0
 18 38  1  0  0  0  0
 18 39  1  0  0  0  0
 18 40  1  0  0  0  0
 19 41  1  0  0  0  0
 19 42  1  0  0  0  0
 19 43  1  0  0  0  0
 21 45  1  0  0  0  0
 21 46  1  0  0  0  0
 21 47  1  0  0  0  0
 22 23  1  0  0  0  0
 23 24  1  0  0  0  0
 23 49  1  0  0  0  0
 23 50  1  0  0  0  0
 24 25  1  0  0  0  0
 24 26  1  0  0  0  0
 24 51  1  0  0  0  0
 25 52  1  0  0  0  0
 25 53  1  0  0  0  0
 25 54  1  0  0  0  0
 26 55  1  0  0  0  0
 26 56  1  0  0  0  0
 26 57  1  0  0  0  0
M  END
> <PUBCHEM_COMPOUND_CID>
46191454

> <PUBCHEM_CONFORMER_RMSD>
0.8

> <PUBCHEM_CONFORMER_DIVERSEORDER>
2
18
71
5
11
20
79
76
72
19
17
80
74
42
60
25
9
52
58
24
51
37
48
33
16
40
35
13
49
81
15
26
4
34
56
31
39
38
54
77
21
30
78
36
28
55
70
22
66
32
75
41
23
73
50
14
69
43
45
61
29
82
3
53
62
6
57
68
67
7
65
63
27
12
44
59
1
46
10
64
47
8

> <PUBCHEM_MMFF94_PARTIAL_CHARGES>
21
1 -0.57
10 -0.33
11 0.48
12 -0.18
13 0.57
16 0.27
17 0.27
2 -0.57
20 0.35
21 0.27
22 0.57
23 0.06
3 -0.66
4 -0.81
44 0.27
48 0.37
5 0.3
6 -0.71
7 -0.49
8 0.48
9 0.06

> <PUBCHEM_EFFECTIVE_ROTOR_COUNT>
7.8

> <PUBCHEM_PHARMACOPHORE_FEATURES>
10
1 1 acceptor
1 2 acceptor
1 4 cation
1 5 donor
1 7 donor
3 24 25 26 hydrophobe
3 8 18 19 hydrophobe
5 3 8 10 11 12 rings
5 5 6 10 12 20 rings
6 4 9 14 15 16 17 rings

> <PUBCHEM_HEAVY_ATOM_COUNT>
26

> <PUBCHEM_ATOM_DEF_STEREO_COUNT>
0

> <PUBCHEM_ATOM_UDEF_STEREO_COUNT>
0

> <PUBCHEM_BOND_DEF_STEREO_COUNT>
0

> <PUBCHEM_BOND_UDEF_STEREO_COUNT>
0

> <PUBCHEM_ISOTOPIC_ATOM_COUNT>
0

> <PUBCHEM_COMPONENT_COUNT>
1

> <PUBCHEM_CACTVS_TAUTO_COUNT>
8

> <PUBCHEM_CONFORMER_ID>
02C0D35E00000002

> <PUBCHEM_MMFF94_ENERGY>
64.0648

> <PUBCHEM_FEATURE_SELFOVERLAP>
50.991

> <PUBCHEM_SHAPE_FINGERPRINT>
10050765 1 18410855468787675073
11197282 1 18410856559930823386
117089 54 18337398243808422643
11809386 21 18264201410063729274
11963148 33 18267015253777846526
12107183 9 18341345457114397569
12422481 6 17275388694254791062
12623949 98 18129953376832290534
12760667 363 18412260610514158803
13140716 1 18413673513248053809
13540713 4 18268127843433365224
1361 4 18195247703646110398
1361 87 17532379849513498251
13690498 29 18186804638631092711
13782708 43 17988359274709673566
13911852 28 18340484581847981167
13955234 65 17912359037368230152
14168556 18 18412257364536910546
14211702 104 18411697682320677066
14251740 57 18341047540143320138
14251764 30 18411140238336247430
14866123 147 18340489937920035105
14931854 50 17967802839312657915
14950920 106 16415471688026284634
15042514 8 18411419484356605345
15250474 111 17898845752275047746
15352361 1 18409444816927613611
16120349 21 18340497694889226731
17138139 8 17967248677020418258
17492 89 18411416241276280912
17909252 39 18338519767422282472
19246450 95 11885727689325603590
193927 3 18409166653381107745
20691028 202 8214151771592971055
20775530 9 18187081775996977891
21033650 10 16371267975416781885
21279426 13 18260818337586897583
21307412 95 18336538310093100991
21682296 61 18342740719172739471
23379529 103 18336828688009923707
23559900 14 18337942463493348881
23569914 2 13396409403970210211
2748736 6 8935002538445003542
2838139 119 7925617887798602410
314194 84 18125155193882331605
335352 9 18267300941911687941
3421961 26 18267301126246667177
44062 13 18337107852431210348
46194498 28 17025424780604396197
484985 159 18340491041547217033
5104073 3 18131069341957798192
5309563 4 18411701001861294643
59755656 520 17979913817932154781
6431902 208 18411416194232600950
7970288 3 18411417353520505286
8863177 126 18341613703222934570

> <PUBCHEM_SHAPE_MULTIPOLES>
498.42
15.33
5.09
1.08
15.61
0.34
0.2
22.67
1.88
-2.47
-0.2
-0.36
0.05
1.1

> <PUBCHEM_SHAPE_SELFOVERLAP>
1038.979

> <PUBCHEM_SHAPE_VOLUME>
284.6

> <PUBCHEM_COORDINATE_TYPE>
2
5
10

$$$$
