44570553
  -OEChem-10062122013D

 51 53  0     0  0  0  0  0  0999 V2000
    6.9601   -4.9817   -0.1581 I   0  0  0  0  0  0  0  0  0  0  0  0
   -7.8306   -1.7824   -0.8481 S   0  0  0  0  0  0  0  0  0  0  0  0
    0.2629    0.1303    2.4866 F   0  0  0  0  0  0  0  0  0  0  0  0
    2.7535   -0.6589    1.7450 F   0  0  0  0  0  0  0  0  0  0  0  0
    6.8843    0.3949    0.0714 F   0  0  0  0  0  0  0  0  0  0  0  0
   -8.6647   -2.1888    0.2748 O   0  0  0  0  0  0  0  0  0  0  0  0
   -8.4393   -1.1443   -2.0067 O   0  0  0  0  0  0  0  0  0  0  0  0
    2.5171    4.1399   -1.6972 O   0  0  0  0  0  0  0  0  0  0  0  0
    3.7141    2.3463   -2.4162 O   0  0  0  0  0  0  0  0  0  0  0  0
   -2.1285    1.3916    0.7537 N   0  0  0  0  0  0  0  0  0  0  0  0
    4.1348    0.6186   -0.2835 N   0  0  0  0  0  0  0  0  0  0  0  0
   -1.0863    2.2870    1.2583 C   0  0  0  0  0  0  0  0  0  0  0  0
   -3.4438    1.8429    1.1786 C   0  0  0  0  0  0  0  0  0  0  0  0
    0.2814    1.8520    0.8524 C   0  0  0  0  0  0  0  0  0  0  0  0
   -4.5370    0.9391    0.6738 C   0  0  0  0  0  0  0  0  0  0  0  0
    0.9471    2.5206   -0.1751 C   0  0  0  0  0  0  0  0  0  0  0  0
    2.8397    1.0424    0.0895 C   0  0  0  0  0  0  0  0  0  0  0  0
    2.2262    2.1157   -0.5566 C   0  0  0  0  0  0  0  0  0  0  0  0
   -6.5632   -0.7347   -0.2615 C   0  0  0  0  0  0  0  0  0  0  0  0
    0.8949    0.7789    1.4985 C   0  0  0  0  0  0  0  0  0  0  0  0
   -4.9386    1.0084   -0.6602 C   0  0  0  0  0  0  0  0  0  0  0  0
   -5.1485    0.0329    1.5401 C   0  0  0  0  0  0  0  0  0  0  0  0
    2.1740    0.3741    1.1171 C   0  0  0  0  0  0  0  0  0  0  0  0
   -5.9518    0.1715   -1.1279 C   0  0  0  0  0  0  0  0  0  0  0  0
   -6.1616   -0.8040    1.0724 C   0  0  0  0  0  0  0  0  0  0  0  0
    4.7700   -0.6362   -0.2560 C   0  0  0  0  0  0  0  0  0  0  0  0
   -6.9766   -3.2374   -1.4115 C   0  0  0  0  0  0  0  0  0  0  0  0
    2.8949    2.8348   -1.6338 C   0  0  0  0  0  0  0  0  0  0  0  0
    6.1510   -0.7176   -0.0776 C   0  0  0  0  0  0  0  0  0  0  0  0
    4.0166   -1.8004   -0.4078 C   0  0  0  0  0  0  0  0  0  0  0  0
    6.7786   -1.9628   -0.0508 C   0  0  0  0  0  0  0  0  0  0  0  0
    4.6442   -3.0458   -0.3810 C   0  0  0  0  0  0  0  0  0  0  0  0
    6.0253   -3.1269   -0.2024 C   0  0  0  0  0  0  0  0  0  0  0  0
   -1.1246    2.3310    2.3548 H   0  0  0  0  0  0  0  0  0  0  0  0
   -1.2699    3.3111    0.9076 H   0  0  0  0  0  0  0  0  0  0  0  0
   -3.4909    1.8898    2.2742 H   0  0  0  0  0  0  0  0  0  0  0  0
   -3.6421    2.8610    0.8180 H   0  0  0  0  0  0  0  0  0  0  0  0
   -2.0874    1.3777   -0.2659 H   0  0  0  0  0  0  0  0  0  0  0  0
    0.4472    3.3445   -0.6790 H   0  0  0  0  0  0  0  0  0  0  0  0
   -4.4694    1.7101   -1.3448 H   0  0  0  0  0  0  0  0  0  0  0  0
   -4.8434   -0.0345    2.5810 H   0  0  0  0  0  0  0  0  0  0  0  0
   -6.2435    0.2379   -2.1723 H   0  0  0  0  0  0  0  0  0  0  0  0
   -6.6195   -1.5072    1.7624 H   0  0  0  0  0  0  0  0  0  0  0  0
    4.7404    1.3727   -0.5947 H   0  0  0  0  0  0  0  0  0  0  0  0
   -7.7197   -3.9378   -1.7988 H   0  0  0  0  0  0  0  0  0  0  0  0
   -6.2815   -2.9562   -2.2048 H   0  0  0  0  0  0  0  0  0  0  0  0
   -6.4451   -3.6858   -0.5700 H   0  0  0  0  0  0  0  0  0  0  0  0
    2.9436   -1.7675   -0.5765 H   0  0  0  0  0  0  0  0  0  0  0  0
    7.8556   -2.0032    0.0903 H   0  0  0  0  0  0  0  0  0  0  0  0
    4.0393   -3.9403   -0.5066 H   0  0  0  0  0  0  0  0  0  0  0  0
    2.9710    4.6166   -2.4246 H   0  0  0  0  0  0  0  0  0  0  0  0
  1 33  1  0  0  0  0
  2  6  2  0  0  0  0
  2  7  2  0  0  0  0
  2 19  1  0  0  0  0
  2 27  1  0  0  0  0
  3 20  1  0  0  0  0
  4 23  1  0  0  0  0
  5 29  1  0  0  0  0
  8 28  1  0  0  0  0
  8 51  1  0  0  0  0
  9 28  2  0  0  0  0
 10 12  1  0  0  0  0
 10 13  1  0  0  0  0
 10 38  1  0  0  0  0
 11 17  1  0  0  0  0
 11 26  1  0  0  0  0
 11 44  1  0  0  0  0
 12 14  1  0  0  0  0
 12 34  1  0  0  0  0
 12 35  1  0  0  0  0
 13 15  1  0  0  0  0
 13 36  1  0  0  0  0
 13 37  1  0  0  0  0
 14 16  2  0  0  0  0
 14 20  1  0  0  0  0
 15 21  2  0  0  0  0
 15 22  1  0  0  0  0
 16 18  1  0  0  0  0
 16 39  1  0  0  0  0
 17 18  2  0  0  0  0
 17 23  1  0  0  0  0
 18 28  1  0  0  0  0
 19 24  2  0  0  0  0
 19 25  1  0  0  0  0
 20 23  2  0  0  0  0
 21 24  1  0  0  0  0
 21 40  1  0  0  0  0
 22 25  2  0  0  0  0
 22 41  1  0  0  0  0
 24 42  1  0  0  0  0
 25 43  1  0  0  0  0
 26 29  2  0  0  0  0
 26 30  1  0  0  0  0
 27 45  1  0  0  0  0
 27 46  1  0  0  0  0
 27 47  1  0  0  0  0
 29 31  1  0  0  0  0
 30 32  2  0  0  0  0
 30 48  1  0  0  0  0
 31 33  2  0  0  0  0
 31 49  1  0  0  0  0
 32 33  1  0  0  0  0
 32 50  1  0  0  0  0
M  END
> <PUBCHEM_COMPOUND_CID>
44570553

> <PUBCHEM_CONFORMER_RMSD>
1

> <PUBCHEM_CONFORMER_DIVERSEORDER>
1
94
156
52
50
43
163
154
132
48
105
45
67
100
106
65
155
66
99
124
42
142
162
118
88
152
92
107
37
22
75
89
150
85
138
134
15
119
14
20
126
146
16
164
55
125
103
149
64
29
136
145
34
148
10
95
121
86
41
49
78
153
147
122
68
115
19
80
82
139
27
32
84
104
97
116
40
161
83
123
24
30
98
79
77
131
101
76
26
113
144
90
54
59
141
57
157
11
60
137
158
133
102
9
38
140
18
117
159
129
47
33
130
120
73
74
4
63
81
135
160
127
151
69
70
62
21
12
71
110
56
5
109
72
31
108
7
128
112
87
23
53
114
39
36
6
58
51
25
46
17
13
111
96
61
28
8
91
35
44
143
2
3
93

> <PUBCHEM_MMFF94_PARTIAL_CHARGES>
44
1 -0.08
10 -0.9
11 -0.6
12 0.41
13 0.41
14 -0.14
15 -0.14
16 -0.15
17 0.1
18 0.09
19 -0.01
2 1.2
20 0.19
21 -0.15
22 -0.15
23 0.19
24 -0.15
25 -0.15
26 0.1
27 0.11
28 0.63
29 0.19
3 -0.19
30 -0.15
31 -0.15
32 -0.15
33 0.08
38 0.36
39 0.15
4 -0.19
40 0.15
41 0.15
42 0.15
43 0.15
44 0.4
48 0.15
49 0.15
5 -0.19
50 0.15
51 0.5
6 -0.65
7 -0.65
8 -0.65
9 -0.57

> <PUBCHEM_EFFECTIVE_ROTOR_COUNT>
8

> <PUBCHEM_PHARMACOPHORE_FEATURES>
13
1 1 hydrophobe
1 10 cation
1 10 donor
1 11 cation
1 11 donor
1 6 acceptor
1 7 acceptor
1 8 acceptor
1 9 acceptor
3 8 9 28 anion
6 14 16 17 18 20 23 rings
6 15 19 21 22 24 25 rings
6 26 29 30 31 32 33 rings

> <PUBCHEM_HEAVY_ATOM_COUNT>
33

> <PUBCHEM_ATOM_DEF_STEREO_COUNT>
0

> <PUBCHEM_ATOM_UDEF_STEREO_COUNT>
0

> <PUBCHEM_BOND_DEF_STEREO_COUNT>
0

> <PUBCHEM_BOND_UDEF_STEREO_COUNT>
0

> <PUBCHEM_ISOTOPIC_ATOM_COUNT>
0

> <PUBCHEM_COMPONENT_COUNT>
1

> <PUBCHEM_CACTVS_TAUTO_COUNT>
3

> <PUBCHEM_CONFORMER_ID>
02A817B900000001

> <PUBCHEM_MMFF94_ENERGY>
91.3413

> <PUBCHEM_FEATURE_SELFOVERLAP>
66.045

> <PUBCHEM_SHAPE_FINGERPRINT>
10280341 67 12036027831839320782
10693767 8 18334575694807130210
11297010 23 17823714147333339404
11497681 19 18197223551810150854
11607047 403 18127964403464556280
117089 54 18412832391369487235
12061779 8 11314310546977051227
12120059 9 18265595607971736026
12539765 74 8430300373936917576
12623949 98 17986120613337759742
12895837 130 11819282157386230203
1361 4 18272653407291118870
13782708 43 18129379298692373834
14664723 55 11963388501628732831
14931854 50 17967247581845689331
15183329 4 17385720283940027297
15320294 125 17632852023731398333
15950262 2 11387528125945826506
16994733 274 11314609635593102318
2026 5 18411419467203636163
20567600 247 18342459214162451763
20775438 99 18190179168876973738
21197605 99 18202284667872828030
21585483 132 18336257925669981074
23191077 185 12181000651658181808
23522609 53 17984174632360471721
23569943 247 17977950086170452938
24771293 8 18261118444438447048
25025965 108 17682959887110011242
2748736 6 11169913896777452315
2838139 119 12324537449183074947
3504750 166 18053390898508164112
406291 66 18271243833152292479
42767 28 17676204702294792273
439807 62 18343021108355628399
46194498 28 17894349995009767140
4756088 132 17399233049723189682
504579 68 17603580838393858309
5718773 13 18272649030813961155
5874358 3 17823684279888059426
6004065 56 18334860537344539088
7970288 3 18201434818456315107
9555976 147 17558842676369612104
96874 4 18272367551442342175

> <PUBCHEM_SHAPE_MULTIPOLES>
639.65
25.69
5.01
1.72
30.37
3.01
-0.14
33.1
-6.42
-7.11
-2.04
1.16
-0.94
-3.39

> <PUBCHEM_SHAPE_SELFOVERLAP>
1347.894

> <PUBCHEM_SHAPE_VOLUME>
363.4

> <PUBCHEM_COORDINATE_TYPE>
2
5
10

$$$$
