49830301
  -OEChem-10062121533D

 49 52  0     1  0  0  0  0  0999 V2000
    3.7199   -4.6062   -0.5427 Cl  0  0  0  0  0  0  0  0  0  0  0  0
   -2.4868    2.0957   -1.0372 S   0  0  0  0  0  0  0  0  0  0  0  0
   -1.8408    1.5221   -2.2016 O   0  0  0  0  0  0  0  0  0  0  0  0
   -1.8004    3.0728   -0.2141 O   0  0  0  0  0  0  0  0  0  0  0  0
   -3.0619    0.8606   -0.0202 N   0  0  0  0  0  0  0  0  0  0  0  0
   -0.8049   -2.9317    0.3654 N   0  0  0  0  0  0  0  0  0  0  0  0
    0.8199   -1.2983    0.0795 N   0  0  0  0  0  0  0  0  0  0  0  0
    1.3619   -3.6417   -0.0697 N   0  0  0  0  0  0  0  0  0  0  0  0
    3.5581    2.2129   -0.8049 N   0  0  0  0  0  0  0  0  0  0  0  0
    2.3904    3.8742    0.4913 N   0  0  0  0  0  0  0  0  0  0  0  0
   -3.4949   -0.4243   -0.6296 C   0  0  1  0  0  0  0  0  0  0  0  0
   -1.8405   -1.9443    0.5871 C   0  0  1  0  0  0  0  0  0  0  0  0
   -2.2954   -1.3659   -0.7580 C   0  0  0  0  0  0  0  0  0  0  0  0
   -4.6312   -1.0343    0.1926 C   0  0  0  0  0  0  0  0  0  0  0  0
   -3.0037   -2.5911    1.3397 C   0  0  0  0  0  0  0  0  0  0  0  0
   -4.1615   -1.6154    1.5257 C   0  0  0  0  0  0  0  0  0  0  0  0
    0.5161   -2.6098    0.1135 C   0  0  0  0  0  0  0  0  0  0  0  0
   -4.0178    2.8289   -1.5666 C   0  0  0  0  0  0  0  0  0  0  0  0
    2.1171   -1.0205   -0.1663 C   0  0  0  0  0  0  0  0  0  0  0  0
    2.4604    0.3718   -0.2083 C   0  0  0  0  0  0  0  0  0  0  0  0
    2.6425   -3.2921   -0.3108 C   0  0  0  0  0  0  0  0  0  0  0  0
    3.0822   -1.9854   -0.3713 C   0  0  0  0  0  0  0  0  0  0  0  0
    1.8878    1.4739    0.4802 C   0  0  0  0  0  0  0  0  0  0  0  0
    3.4853    0.8569   -0.9916 C   0  0  0  0  0  0  0  0  0  0  0  0
    2.5946    2.6064    0.0862 C   0  0  0  0  0  0  0  0  0  0  0  0
    0.8427    1.6525    1.4011 C   0  0  0  0  0  0  0  0  0  0  0  0
    0.5880    2.9456    1.8538 C   0  0  0  0  0  0  0  0  0  0  0  0
    1.3730    3.9868    1.3769 C   0  0  0  0  0  0  0  0  0  0  0  0
   -3.8893   -0.2147   -1.6313 H   0  0  0  0  0  0  0  0  0  0  0  0
   -1.4551   -1.1355    1.2219 H   0  0  0  0  0  0  0  0  0  0  0  0
   -1.4610   -0.8613   -1.2564 H   0  0  0  0  0  0  0  0  0  0  0  0
   -2.5807   -2.1948   -1.4210 H   0  0  0  0  0  0  0  0  0  0  0  0
   -5.0940   -1.8398   -0.3922 H   0  0  0  0  0  0  0  0  0  0  0  0
   -5.4144   -0.2889    0.3762 H   0  0  0  0  0  0  0  0  0  0  0  0
   -3.3612   -3.4754    0.7953 H   0  0  0  0  0  0  0  0  0  0  0  0
   -2.6648   -2.9481    2.3200 H   0  0  0  0  0  0  0  0  0  0  0  0
   -3.8523   -0.8052    2.1968 H   0  0  0  0  0  0  0  0  0  0  0  0
   -4.9975   -2.1277    2.0154 H   0  0  0  0  0  0  0  0  0  0  0  0
   -3.4906    1.1162    0.8776 H   0  0  0  0  0  0  0  0  0  0  0  0
   -1.0504   -3.9149    0.3443 H   0  0  0  0  0  0  0  0  0  0  0  0
   -4.5689    3.1711   -0.6886 H   0  0  0  0  0  0  0  0  0  0  0  0
   -4.5943    2.0931   -2.1295 H   0  0  0  0  0  0  0  0  0  0  0  0
   -3.7790    3.6799   -2.2082 H   0  0  0  0  0  0  0  0  0  0  0  0
    4.1254   -1.7572   -0.5549 H   0  0  0  0  0  0  0  0  0  0  0  0
    4.1721    0.3762   -1.6754 H   0  0  0  0  0  0  0  0  0  0  0  0
    4.2190    2.8294   -1.2570 H   0  0  0  0  0  0  0  0  0  0  0  0
    0.2450    0.8215    1.7606 H   0  0  0  0  0  0  0  0  0  0  0  0
   -0.2086    3.1338    2.5657 H   0  0  0  0  0  0  0  0  0  0  0  0
    1.1880    5.0016    1.7193 H   0  0  0  0  0  0  0  0  0  0  0  0
  1 21  1  0  0  0  0
  2  3  2  0  0  0  0
  2  4  2  0  0  0  0
  2  5  1  0  0  0  0
  2 18  1  0  0  0  0
  5 11  1  0  0  0  0
  5 39  1  0  0  0  0
  6 12  1  0  0  0  0
  6 17  1  0  0  0  0
  6 40  1  0  0  0  0
  7 17  2  0  0  0  0
  7 19  1  0  0  0  0
  8 17  1  0  0  0  0
  8 21  2  0  0  0  0
  9 24  1  0  0  0  0
  9 25  1  0  0  0  0
  9 46  1  0  0  0  0
 10 25  1  0  0  0  0
 10 28  2  0  0  0  0
 11 13  1  0  0  0  0
 11 14  1  0  0  0  0
 11 29  1  0  0  0  0
 12 13  1  0  0  0  0
 12 15  1  0  0  0  0
 12 30  1  0  0  0  0
 13 31  1  0  0  0  0
 13 32  1  0  0  0  0
 14 16  1  0  0  0  0
 14 33  1  0  0  0  0
 14 34  1  0  0  0  0
 15 16  1  0  0  0  0
 15 35  1  0  0  0  0
 15 36  1  0  0  0  0
 16 37  1  0  0  0  0
 16 38  1  0  0  0  0
 18 41  1  0  0  0  0
 18 42  1  0  0  0  0
 18 43  1  0  0  0  0
 19 20  1  0  0  0  0
 19 22  2  0  0  0  0
 20 23  1  0  0  0  0
 20 24  2  0  0  0  0
 21 22  1  0  0  0  0
 22 44  1  0  0  0  0
 23 25  2  0  0  0  0
 23 26  1  0  0  0  0
 24 45  1  0  0  0  0
 26 27  2  0  0  0  0
 26 47  1  0  0  0  0
 27 28  1  0  0  0  0
 27 48  1  0  0  0  0
 28 49  1  0  0  0  0
M  END
> <PUBCHEM_COMPOUND_CID>
49830301

> <PUBCHEM_CONFORMER_RMSD>
1.2

> <PUBCHEM_CONFORMER_DIVERSEORDER>
1
14
58
100
127
27
11
132
102
117
114
9
89
26
21
81
94
141
128
39
6
78
40
133
86
97
68
50
25
32
28
15
99
46
24
139
125
74
115
93
77
33
84
120
83
134
5
129
92
8
72
116
22
2
110
76
70
34
44
137
87
71
73
4
121
17
79
122
7
103
82
55
107
61
91
119
59
38
66
67
138
88
30
53
108
145
62
123
142
80
144
65
3
35
45
101
41
23
64
130
52
135
60
56
131
49
111
19
96
42
136
143
105
109
126
18
113
98
75
69
118
95
140
36
85
54
47
12
37
16
51
48
43
10
124
90
106
104
57
20
112
63
13
29
31

> <PUBCHEM_MMFF94_PARTIAL_CHARGES>
31
1 -0.18
10 -0.57
11 0.36
12 0.37
17 0.72
18 0.11
19 0.36
2 1.33
20 -0.05
21 0.49
22 -0.15
24 -0.3
25 0.11
26 -0.15
27 -0.15
28 0.16
3 -0.65
39 0.42
4 -0.65
40 0.4
44 0.15
45 0.15
46 0.27
47 0.15
48 0.15
49 0.15
5 -0.91
6 -0.87
7 -0.62
8 -0.62
9 0.03

> <PUBCHEM_EFFECTIVE_ROTOR_COUNT>
6.2

> <PUBCHEM_PHARMACOPHORE_FEATURES>
13
1 10 acceptor
1 3 acceptor
1 4 acceptor
1 5 donor
1 6 donor
1 8 acceptor
1 9 cation
1 9 donor
4 6 7 8 17 cation
5 9 20 23 24 25 rings
6 10 23 25 26 27 28 rings
6 11 12 13 14 15 16 rings
6 7 8 17 19 21 22 rings

> <PUBCHEM_HEAVY_ATOM_COUNT>
28

> <PUBCHEM_ATOM_DEF_STEREO_COUNT>
0

> <PUBCHEM_ATOM_UDEF_STEREO_COUNT>
2

> <PUBCHEM_BOND_DEF_STEREO_COUNT>
0

> <PUBCHEM_BOND_UDEF_STEREO_COUNT>
0

> <PUBCHEM_ISOTOPIC_ATOM_COUNT>
0

> <PUBCHEM_COMPONENT_COUNT>
1

> <PUBCHEM_CACTVS_TAUTO_COUNT>
16

> <PUBCHEM_CONFORMER_ID>
02F8599D00000001

> <PUBCHEM_MMFF94_ENERGY>
53.8755

> <PUBCHEM_FEATURE_SELFOVERLAP>
66.102

> <PUBCHEM_SHAPE_FINGERPRINT>
10165383 225 18050021170172401900
10190206 1 18052006661721178398
10498660 4 17975401722948221231
1100329 8 17978799999472013881
12100795 323 17403454568703228561
12156800 1 8484691417980435989
12293681 4 17763744291171096255
12403259 226 18335988584244568579
12633257 1 18054787553078973728
12788726 201 17331670254807578234
13122387 1 18122340173200242277
13140716 1 17980200008777032378
13402501 40 18194123147039839521
1361 2 17835791277357234303
138480 1 18340774753938398050
140371 6 17835244446078490718
14114211 68 18046095844978636750
14114211 80 17690311581806432085
14466204 15 18339070588730723666
14866123 147 16536799137019331290
14931854 50 17545030512215730183
17138139 8 16468632761907833316
17921350 177 18131351894997303894
19930381 70 18267864055078562843
20600515 1 17757523297710179210
20775438 99 17693324094092134263
21033648 29 17551521371577880913
221357 26 18337955567623308919
23536364 44 18197242294509179126
23559900 14 18265321829491724719
238 59 18125973122927249469
3524813 1 18195815299560960696
463206 1 17979640030877825512
484989 97 18118124676533251509
6287921 2 16537930092144125857
6442390 28 17907301309776123678
70251023 43 18269815585318583391
7226269 152 17759228601633066442
7808743 9 17183631434087503948

> <PUBCHEM_SHAPE_MULTIPOLES>
540.32
7.77
6.46
1.46
4.19
0.57
-0.05
-2.98
1.8
-4.49
-1.2
1.04
0.95
2.64

> <PUBCHEM_SHAPE_SELFOVERLAP>
1148.644

> <PUBCHEM_SHAPE_VOLUME>
305.4

> <PUBCHEM_COORDINATE_TYPE>
2
5
10

$$$$
