9931954
  -OEChem-10052115143D

 42 45  0     0  0  0  0  0  0999 V2000
   -5.3150   -2.5869    0.1198 F   0  0  0  0  0  0  0  0  0  0  0  0
   -4.7310    2.2711   -0.6709 O   0  0  0  0  0  0  0  0  0  0  0  0
   -0.5389   -1.6935    0.0267 N   0  0  0  0  0  0  0  0  0  0  0  0
   -2.7001    2.9008    0.1330 N   0  0  0  0  0  0  0  0  0  0  0  0
    6.4393    0.8078   -0.0571 N   0  0  0  0  0  0  0  0  0  0  0  0
   -0.7308    0.5197   -0.0326 C   0  0  0  0  0  0  0  0  0  0  0  0
   -2.0454   -0.0422   -0.0217 C   0  0  0  0  0  0  0  0  0  0  0  0
   -0.4101    1.9709   -0.0176 C   0  0  0  0  0  0  0  0  0  0  0  0
    0.1683   -0.5255   -0.0155 C   0  0  0  0  0  0  0  0  0  0  0  0
   -1.8892   -1.4307    0.0358 C   0  0  0  0  0  0  0  0  0  0  0  0
   -3.3518    0.4947   -0.0485 C   0  0  0  0  0  0  0  0  0  0  0  0
   -1.4238    2.7438    0.8153 C   0  0  0  0  0  0  0  0  0  0  0  0
    1.6133   -0.5250   -0.0190 C   0  0  0  0  0  0  0  0  0  0  0  0
   -3.6362    1.9426   -0.2086 C   0  0  0  0  0  0  0  0  0  0  0  0
   -2.9688   -2.3177    0.0868 C   0  0  0  0  0  0  0  0  0  0  0  0
   -4.4435   -0.3945    0.0000 C   0  0  0  0  0  0  0  0  0  0  0  0
   -4.2515   -1.7727    0.0732 C   0  0  0  0  0  0  0  0  0  0  0  0
    2.3112   -0.5027    1.1869 C   0  0  0  0  0  0  0  0  0  0  0  0
    2.3048   -0.5473   -1.2287 C   0  0  0  0  0  0  0  0  0  0  0  0
    4.4004   -0.5250   -0.0267 C   0  0  0  0  0  0  0  0  0  0  0  0
    3.7061   -0.5027    1.1831 C   0  0  0  0  0  0  0  0  0  0  0  0
    3.6997   -0.5474   -1.2324 C   0  0  0  0  0  0  0  0  0  0  0  0
    5.8915   -0.5248   -0.0309 C   0  0  0  0  0  0  0  0  0  0  0  0
    7.9014    0.7871   -0.0504 C   0  0  0  0  0  0  0  0  0  0  0  0
    0.5834    2.1288    0.4181 H   0  0  0  0  0  0  0  0  0  0  0  0
   -0.3807    2.3512   -1.0457 H   0  0  0  0  0  0  0  0  0  0  0  0
   -0.1347   -2.6197    0.0559 H   0  0  0  0  0  0  0  0  0  0  0  0
   -1.6097    2.2666    1.7845 H   0  0  0  0  0  0  0  0  0  0  0  0
   -1.0486    3.7558    1.0026 H   0  0  0  0  0  0  0  0  0  0  0  0
   -2.9834    3.8604   -0.0410 H   0  0  0  0  0  0  0  0  0  0  0  0
   -2.8186   -3.3910    0.1342 H   0  0  0  0  0  0  0  0  0  0  0  0
   -5.4653   -0.0215   -0.0205 H   0  0  0  0  0  0  0  0  0  0  0  0
    1.7845   -0.4841    2.1380 H   0  0  0  0  0  0  0  0  0  0  0  0
    1.7730   -0.5642   -2.1771 H   0  0  0  0  0  0  0  0  0  0  0  0
    4.2398   -0.4833    2.1296 H   0  0  0  0  0  0  0  0  0  0  0  0
    4.2285   -0.5630   -2.1819 H   0  0  0  0  0  0  0  0  0  0  0  0
    6.2471   -1.0657    0.8563 H   0  0  0  0  0  0  0  0  0  0  0  0
    6.2469   -1.1054   -0.8928 H   0  0  0  0  0  0  0  0  0  0  0  0
    6.1232    1.2968   -0.8947 H   0  0  0  0  0  0  0  0  0  0  0  0
    8.2852    0.3036    0.8536 H   0  0  0  0  0  0  0  0  0  0  0  0
    8.2787    1.8143   -0.0611 H   0  0  0  0  0  0  0  0  0  0  0  0
    8.2981    0.2715   -0.9311 H   0  0  0  0  0  0  0  0  0  0  0  0
  1 17  1  0  0  0  0
  2 14  2  0  0  0  0
  3  9  1  0  0  0  0
  3 10  1  0  0  0  0
  3 27  1  0  0  0  0
  4 12  1  0  0  0  0
  4 14  1  0  0  0  0
  4 30  1  0  0  0  0
  5 23  1  0  0  0  0
  5 24  1  0  0  0  0
  5 39  1  0  0  0  0
  6  7  1  0  0  0  0
  6  8  1  0  0  0  0
  6  9  2  0  0  0  0
  7 10  1  0  0  0  0
  7 11  2  0  0  0  0
  8 12  1  0  0  0  0
  8 25  1  0  0  0  0
  8 26  1  0  0  0  0
  9 13  1  0  0  0  0
 10 15  2  0  0  0  0
 11 14  1  0  0  0  0
 11 16  1  0  0  0  0
 12 28  1  0  0  0  0
 12 29  1  0  0  0  0
 13 18  2  0  0  0  0
 13 19  1  0  0  0  0
 15 17  1  0  0  0  0
 15 31  1  0  0  0  0
 16 17  2  0  0  0  0
 16 32  1  0  0  0  0
 18 21  1  0  0  0  0
 18 33  1  0  0  0  0
 19 22  2  0  0  0  0
 19 34  1  0  0  0  0
 20 21  2  0  0  0  0
 20 22  1  0  0  0  0
 20 23  1  0  0  0  0
 21 35  1  0  0  0  0
 22 36  1  0  0  0  0
 23 37  1  0  0  0  0
 23 38  1  0  0  0  0
 24 40  1  0  0  0  0
 24 41  1  0  0  0  0
 24 42  1  0  0  0  0
M  END
> <PUBCHEM_COMPOUND_CID>
9931954

> <PUBCHEM_CONFORMER_RMSD>
0.6

> <PUBCHEM_CONFORMER_DIVERSEORDER>
1
11
14
13
12
5
9
4
7
10
6
8
15
2
3

> <PUBCHEM_MMFF94_PARTIAL_CHARGES>
32
1 -0.19
10 -0.15
11 0.09
12 0.3
13 0.05
14 0.54
15 -0.15
16 -0.15
17 0.19
18 -0.15
19 -0.15
2 -0.57
20 -0.14
21 -0.15
22 -0.15
23 0.41
24 0.27
27 0.27
3 0.03
30 0.37
31 0.15
32 0.15
33 0.15
34 0.15
35 0.15
36 0.15
39 0.36
4 -0.73
5 -0.9
6 -0.18
8 0.18
9 -0.2

> <PUBCHEM_EFFECTIVE_ROTOR_COUNT>
3.6

> <PUBCHEM_PHARMACOPHORE_FEATURES>
10
1 2 acceptor
1 3 cation
1 3 donor
1 4 donor
1 5 cation
1 5 donor
5 3 6 7 9 10 rings
6 13 18 19 20 21 22 rings
6 7 10 11 15 16 17 rings
7 4 6 7 8 11 12 14 rings

> <PUBCHEM_HEAVY_ATOM_COUNT>
24

> <PUBCHEM_ATOM_DEF_STEREO_COUNT>
0

> <PUBCHEM_ATOM_UDEF_STEREO_COUNT>
0

> <PUBCHEM_BOND_DEF_STEREO_COUNT>
0

> <PUBCHEM_BOND_UDEF_STEREO_COUNT>
0

> <PUBCHEM_ISOTOPIC_ATOM_COUNT>
0

> <PUBCHEM_COMPONENT_COUNT>
1

> <PUBCHEM_CACTVS_TAUTO_COUNT>
3

> <PUBCHEM_CONFORMER_ID>
00978CB200000001

> <PUBCHEM_MMFF94_ENERGY>
57.9217

> <PUBCHEM_FEATURE_SELFOVERLAP>
50.882

> <PUBCHEM_SHAPE_FINGERPRINT>
10319926 262 18269536283721509538
10366900 7 17560508508961500752
10411042 1 18122344842552886203
10498660 4 18339644434293669928
10595046 47 18335421266820506130
10730089 173 18410575076653562040
11315181 36 17676490587960347918
11578080 2 13972585434032088433
12107183 9 17686049501608047602
12236239 1 17894629236777283706
12403259 415 17775277288215695490
12596602 18 18114177532589059226
12788726 201 18333445452535695731
13073987 5 18334293154678763842
13140716 1 18339927121215926073
13403585 85 18411980278214987780
13631057 29 18261391195407651555
13782708 43 17632301142789500830
16087824 20 18410292464460369669
17844677 252 18411707586673172742
17980427 23 18260272949095289412
18336668 15 18113903787847301396
19427546 20 18333167276172391549
19489759 90 18260829301963190342
200 152 16515399672871954934
20510252 161 18342740680833992915
20511986 3 17677319529085108320
21033648 29 17489010605033649074
21033650 10 18120120341286862982
21065198 48 18187077335349070362
21236236 1 18411981351466188327
21267235 1 18337396044969107827
21792961 116 17560806494937111646
2297311 6 18342463659453687150
23402539 116 18409726253444862582
23557571 272 18342460352550278902
23559900 14 18199190590343191782
283562 15 18410857642467823467
335352 9 18410568505970661007
34797466 226 17916598656364392804
4073 2 18041286526297623602
4214541 1 18409166584735477484
445580 37 18337120025201970740
469060 322 18337411382587005211
484989 97 18262509412836255159
5104073 3 18335704880248007562
59567204 34 18410009927967249973
6327066 14 18044367232918522573
67856867 119 18188495795453784404
7237137 82 18335421270218726853
7808743 9 18338516314174013944

> <PUBCHEM_SHAPE_MULTIPOLES>
465.82
14.29
2.64
0.9
23.6
1.15
0
0.37
-0.69
-4.83
0.18
0.65
-0.02
0.29

> <PUBCHEM_SHAPE_SELFOVERLAP>
1035.593

> <PUBCHEM_SHAPE_VOLUME>
249.8

> <PUBCHEM_COORDINATE_TYPE>
2
5
10

$$$$
