25164677
  -OEChem-10052115143D

 30 32  0     0  0  0  0  0  0999 V2000
   -1.1689   -1.3806   -0.1539 O   0  0  0  0  0  0  0  0  0  0  0  0
    4.6600    0.6814    0.1599 N   0  0  0  0  0  0  0  0  0  0  0  0
   -2.5504   -1.4872   -0.2588 N   0  0  0  0  0  0  0  0  0  0  0  0
    5.1503   -0.5617    0.2988 N   0  0  0  0  0  0  0  0  0  0  0  0
   -4.4250    0.0364   -0.5335 C   0  0  0  0  0  0  0  0  0  0  0  0
    0.6016    0.1975   -0.1340 C   0  0  0  0  0  0  0  0  0  0  0  0
   -2.9848   -0.2309   -0.3942 C   0  0  0  0  0  0  0  0  0  0  0  0
   -0.8134   -0.0726   -0.2286 C   0  0  0  0  0  0  0  0  0  0  0  0
   -5.1292    0.2578    0.8212 C   0  0  0  0  0  0  0  0  0  0  0  0
    2.8694   -0.5837    0.1140 C   0  0  0  0  0  0  0  0  0  0  0  0
    3.2973    0.7374    0.0439 C   0  0  0  0  0  0  0  0  0  0  0  0
   -1.9331    0.7015   -0.3819 C   0  0  0  0  0  0  0  0  0  0  0  0
    1.4966   -0.8681    0.0242 C   0  0  0  0  0  0  0  0  0  0  0  0
    1.0584    1.5150   -0.2014 C   0  0  0  0  0  0  0  0  0  0  0  0
    2.4219    1.8141   -0.1136 C   0  0  0  0  0  0  0  0  0  0  0  0
   -6.6088    0.5721    0.6675 C   0  0  0  0  0  0  0  0  0  0  0  0
    4.0581   -1.3285    0.2706 C   0  0  0  0  0  0  0  0  0  0  0  0
   -4.5714    0.9244   -1.1618 H   0  0  0  0  0  0  0  0  0  0  0  0
   -4.9124   -0.7933   -1.0615 H   0  0  0  0  0  0  0  0  0  0  0  0
   -5.0151   -0.6365    1.4462 H   0  0  0  0  0  0  0  0  0  0  0  0
   -4.6438    1.0816    1.3591 H   0  0  0  0  0  0  0  0  0  0  0  0
   -1.9922    1.7764   -0.4717 H   0  0  0  0  0  0  0  0  0  0  0  0
    1.1696   -1.9020    0.0797 H   0  0  0  0  0  0  0  0  0  0  0  0
    0.3671    2.3460   -0.3243 H   0  0  0  0  0  0  0  0  0  0  0  0
    2.7789    2.8367   -0.1658 H   0  0  0  0  0  0  0  0  0  0  0  0
   -6.7555    1.4842    0.0803 H   0  0  0  0  0  0  0  0  0  0  0  0
   -7.1321   -0.2478    0.1655 H   0  0  0  0  0  0  0  0  0  0  0  0
   -7.0698    0.7207    1.6489 H   0  0  0  0  0  0  0  0  0  0  0  0
    4.1719   -2.3992    0.3651 H   0  0  0  0  0  0  0  0  0  0  0  0
    5.3134    1.4546    0.1519 H   0  0  0  0  0  0  0  0  0  0  0  0
  1  3  1  0  0  0  0
  1  8  1  0  0  0  0
  2  4  1  0  0  0  0
  2 11  1  0  0  0  0
  2 30  1  0  0  0  0
  3  7  2  0  0  0  0
  4 17  2  0  0  0  0
  5  7  1  0  0  0  0
  5  9  1  0  0  0  0
  5 18  1  0  0  0  0
  5 19  1  0  0  0  0
  6  8  1  0  0  0  0
  6 13  2  0  0  0  0
  6 14  1  0  0  0  0
  7 12  1  0  0  0  0
  8 12  2  0  0  0  0
  9 16  1  0  0  0  0
  9 20  1  0  0  0  0
  9 21  1  0  0  0  0
 10 11  2  0  0  0  0
 10 13  1  0  0  0  0
 10 17  1  0  0  0  0
 11 15  1  0  0  0  0
 12 22  1  0  0  0  0
 13 23  1  0  0  0  0
 14 15  2  0  0  0  0
 14 24  1  0  0  0  0
 15 25  1  0  0  0  0
 16 26  1  0  0  0  0
 16 27  1  0  0  0  0
 16 28  1  0  0  0  0
 17 29  1  0  0  0  0
M  END
> <PUBCHEM_COMPOUND_CID>
25164677

> <PUBCHEM_CONFORMER_RMSD>
0.6

> <PUBCHEM_CONFORMER_DIVERSEORDER>
1
6
18
25
12
23
4
13
26
10
16
17
3
7
21
5
20
15
2
11
14
9
24
8
19
22

> <PUBCHEM_MMFF94_PARTIAL_CHARGES>
20
1 -0.02
11 -0.15
12 -0.15
13 -0.15
14 -0.15
15 -0.15
17 0.14
2 0.3
22 0.15
23 0.15
24 0.15
25 0.15
29 0.15
3 -0.41
30 0.27
4 -0.71
5 0.18
6 0.05
7 0.11
8 0.09

> <PUBCHEM_EFFECTIVE_ROTOR_COUNT>
3

> <PUBCHEM_PHARMACOPHORE_FEATURES>
7
1 16 hydrophobe
1 2 donor
1 3 acceptor
1 4 acceptor
5 1 3 7 8 12 rings
5 2 4 10 11 17 rings
6 6 10 11 13 14 15 rings

> <PUBCHEM_HEAVY_ATOM_COUNT>
17

> <PUBCHEM_ATOM_DEF_STEREO_COUNT>
0

> <PUBCHEM_ATOM_UDEF_STEREO_COUNT>
0

> <PUBCHEM_BOND_DEF_STEREO_COUNT>
0

> <PUBCHEM_BOND_UDEF_STEREO_COUNT>
0

> <PUBCHEM_ISOTOPIC_ATOM_COUNT>
0

> <PUBCHEM_COMPONENT_COUNT>
1

> <PUBCHEM_CACTVS_TAUTO_COUNT>
3

> <PUBCHEM_CONFORMER_ID>
017FFB8500000001

> <PUBCHEM_MMFF94_ENERGY>
20.2524

> <PUBCHEM_FEATURE_SELFOVERLAP>
35.611

> <PUBCHEM_SHAPE_FINGERPRINT>
10354089 29 18410296908427045049
10366900 7 8646767807042706855
10688039 33 18040436560094977125
11089746 13 17346593076154774449
11287383 113 16081376271101194076
11405975 8 18339078297680133187
11458722 120 18343021073473689465
11471102 20 18409160030847511972
12236239 1 17988923379481179159
12251169 10 18411136939505373949
13167372 99 18272375218333557761
13533116 47 17131554929642625766
13675066 3 17967813868730008749
13760787 5 18408880767699954653
1420 363 17095245808987719569
14251718 22 11169916091384115921
14251764 18 18412823620333267749
14341114 176 18334298660351745601
15048467 5 17846777425362926536
15196674 1 18338232777290773374
17834076 25 17203609276779709971
17844677 252 16588027900876340981
18186145 218 17749377208890318574
18522853 276 18342737416374173472
19141452 34 18412260662038221719
19433438 28 17748824107845773717
19489759 90 15554448488075933211
200 152 18131625712258366959
20279233 1 13182742575789080317
20645477 70 18410007715605561326
21033648 29 17968358109985750317
21267235 1 18336550417790835794
212847 35 18202003243807542169
23402539 116 17703783722236636165
23402655 69 18342173418664717628
23559900 14 18271237326819690440
26918003 58 18260833704779247393
335352 9 18411136935226465070
3545911 37 18411419513893452958
42 15 18333170574459335335
4214541 1 18411417336920124855
4325135 7 8358258137984445929
4340502 62 16371001928241816024
4990 188 12252177434055844024
5104073 3 18337667641198908203
542803 24 17704353273164310101
7495541 125 14129349510830803940
77779 3 18336545009751569151
8272917 22 18202006495029298094
9981440 41 17329702635747629857

> <PUBCHEM_SHAPE_MULTIPOLES>
329.04
12.5
1.44
0.73
11.52
0.14
-0.03
0.32
-2.93
-1
0.05
0.49
0.02
-0.39

> <PUBCHEM_SHAPE_SELFOVERLAP>
721.404

> <PUBCHEM_SHAPE_VOLUME>
181.2

> <PUBCHEM_COORDINATE_TYPE>
2
5
10

$$$$
