136027063
  -OEChem-10062121533D

 33 35  0     0  0  0  0  0  0999 V2000
   -5.9851    0.1220   -0.3049 O   0  0  0  0  0  0  0  0  0  0  0  0
    1.4954    1.5403   -0.4556 O   0  0  0  0  0  0  0  0  0  0  0  0
    0.0838   -0.1185    0.4045 N   0  0  0  0  0  0  0  0  0  0  0  0
    2.3565   -0.4920    0.3170 N   0  0  0  0  0  0  0  0  0  0  0  0
    4.2158    0.8018   -0.4367 N   0  0  0  0  0  0  0  0  0  0  0  0
    5.9171   -1.3105    0.2775 N   0  0  0  0  0  0  0  0  0  0  0  0
   -2.3395   -0.3160    0.0997 C   0  0  0  0  0  0  0  0  0  0  0  0
   -3.5970    0.3253   -0.0033 C   0  0  0  0  0  0  0  0  0  0  0  0
   -1.1864    0.4611    0.2954 C   0  0  0  0  0  0  0  0  0  0  0  0
   -2.2724   -1.7155    0.0038 C   0  0  0  0  0  0  0  0  0  0  0  0
   -3.6642    1.7247    0.0924 C   0  0  0  0  0  0  0  0  0  0  0  0
   -4.7503   -0.4519   -0.1994 C   0  0  0  0  0  0  0  0  0  0  0  0
   -1.2716    1.8506    0.3884 C   0  0  0  0  0  0  0  0  0  0  0  0
   -2.5081    2.4812    0.2871 C   0  0  0  0  0  0  0  0  0  0  0  0
   -3.4285   -2.4719   -0.1910 C   0  0  0  0  0  0  0  0  0  0  0  0
   -4.6650   -1.8413   -0.2924 C   0  0  0  0  0  0  0  0  0  0  0  0
    1.3338    0.4280    0.0361 C   0  0  0  0  0  0  0  0  0  0  0  0
    3.7467   -0.3414    0.1017 C   0  0  0  0  0  0  0  0  0  0  0  0
    4.5824   -1.3789    0.4524 C   0  0  0  0  0  0  0  0  0  0  0  0
    5.5504    0.8701   -0.6116 C   0  0  0  0  0  0  0  0  0  0  0  0
    6.3861   -0.1673   -0.2609 C   0  0  0  0  0  0  0  0  0  0  0  0
   -1.3385   -2.2659    0.0638 H   0  0  0  0  0  0  0  0  0  0  0  0
   -4.6147    2.2486    0.0196 H   0  0  0  0  0  0  0  0  0  0  0  0
   -0.4072    2.4776    0.5813 H   0  0  0  0  0  0  0  0  0  0  0  0
   -2.5756    3.5622    0.3691 H   0  0  0  0  0  0  0  0  0  0  0  0
    0.1127   -1.1101    0.6147 H   0  0  0  0  0  0  0  0  0  0  0  0
   -3.3631   -3.5536   -0.2661 H   0  0  0  0  0  0  0  0  0  0  0  0
   -5.5555   -2.4456   -0.4447 H   0  0  0  0  0  0  0  0  0  0  0  0
    2.0719   -1.3771    0.7291 H   0  0  0  0  0  0  0  0  0  0  0  0
   -6.6525   -0.5729   -0.4365 H   0  0  0  0  0  0  0  0  0  0  0  0
    4.2184   -2.3034    0.8858 H   0  0  0  0  0  0  0  0  0  0  0  0
    5.9280    1.7884   -1.0442 H   0  0  0  0  0  0  0  0  0  0  0  0
    7.4584   -0.1116   -0.4018 H   0  0  0  0  0  0  0  0  0  0  0  0
  1 12  1  0  0  0  0
  1 30  1  0  0  0  0
  2 17  2  0  0  0  0
  3  9  1  0  0  0  0
  3 17  1  0  0  0  0
  3 26  1  0  0  0  0
  4 17  1  0  0  0  0
  4 18  1  0  0  0  0
  4 29  1  0  0  0  0
  5 18  2  0  0  0  0
  5 20  1  0  0  0  0
  6 19  2  0  0  0  0
  6 21  1  0  0  0  0
  7  8  2  0  0  0  0
  7  9  1  0  0  0  0
  7 10  1  0  0  0  0
  8 11  1  0  0  0  0
  8 12  1  0  0  0  0
  9 13  2  0  0  0  0
 10 15  2  0  0  0  0
 10 22  1  0  0  0  0
 11 14  2  0  0  0  0
 11 23  1  0  0  0  0
 12 16  2  0  0  0  0
 13 14  1  0  0  0  0
 13 24  1  0  0  0  0
 14 25  1  0  0  0  0
 15 16  1  0  0  0  0
 15 27  1  0  0  0  0
 16 28  1  0  0  0  0
 18 19  1  0  0  0  0
 19 31  1  0  0  0  0
 20 21  2  0  0  0  0
 20 32  1  0  0  0  0
 21 33  1  0  0  0  0
M  END
> <PUBCHEM_COMPOUND_CID>
136027063

> <PUBCHEM_CONFORMER_RMSD>
0.6

> <PUBCHEM_CONFORMER_DIVERSEORDER>
1
13
22
16
15
4
24
20
11
21
3
9
10
6
23
19
2
14
17
18
12
7
5
8

> <PUBCHEM_MMFF94_PARTIAL_CHARGES>
31
1 -0.53
10 -0.15
11 -0.15
12 0.08
13 -0.15
14 -0.15
15 -0.15
16 -0.15
17 0.69
18 0.43
19 0.16
2 -0.57
20 0.16
21 0.16
22 0.15
23 0.15
24 0.15
25 0.15
26 0.37
27 0.15
28 0.15
29 0.37
3 -0.55
30 0.45
31 0.15
32 0.15
33 0.15
4 -0.55
5 -0.62
6 -0.62
9 0.12

> <PUBCHEM_EFFECTIVE_ROTOR_COUNT>
4

> <PUBCHEM_PHARMACOPHORE_FEATURES>
8
1 1 donor
1 2 acceptor
1 3 donor
1 4 donor
1 6 acceptor
6 5 6 18 19 20 21 rings
6 7 8 10 12 15 16 rings
6 7 8 9 11 13 14 rings

> <PUBCHEM_HEAVY_ATOM_COUNT>
21

> <PUBCHEM_ATOM_DEF_STEREO_COUNT>
0

> <PUBCHEM_ATOM_UDEF_STEREO_COUNT>
0

> <PUBCHEM_BOND_DEF_STEREO_COUNT>
0

> <PUBCHEM_BOND_UDEF_STEREO_COUNT>
0

> <PUBCHEM_ISOTOPIC_ATOM_COUNT>
0

> <PUBCHEM_COMPONENT_COUNT>
1

> <PUBCHEM_CACTVS_TAUTO_COUNT>
-1

> <PUBCHEM_CONFORMER_ID>
081B9BB700000001

> <PUBCHEM_MMFF94_ENERGY>
71.5902

> <PUBCHEM_FEATURE_SELFOVERLAP>
40.673

> <PUBCHEM_SHAPE_FINGERPRINT>
10411042 1 18196089079069873127
10595046 47 18408042922960263656
10616163 171 18412545392452676766
10912923 1 18260548892723756544
10968037 39 18409167735797327303
11315181 36 18408606967745470552
11524674 6 16487255486889830847
12107183 9 17687742736508380530
12236239 1 18113618979948919068
12516196 113 18131348626896598880
12788726 201 18410570644073090553
13167823 11 18408322173033405130
13288520 33 18342458144942298565
14508225 48 18338785815209177965
14528608 73 18334020514797589988
15183329 4 18408041797457526442
15196674 1 18409730655923334826
15250474 111 18262507122770113978
17834072 33 18335422374579092572
17844677 252 18342182172098652392
17857418 61 18410009944719513298
18681886 176 18340767131009374288
18927931 339 18342182176250993655
19489759 90 18341894073691163688
200 152 18408885152486913193
20374829 77 18342737446776431167
20511986 3 18187352225940182972
21033648 29 16558454306405999338
21236236 1 18342739585722996161
21267235 1 18337394937363248691
22061861 79 14851599947912123538
2297311 6 18273220802287264969
23175994 123 16702301269484605345
23198884 109 15357694172035194413
23402539 116 18412821391720027565
23522609 53 18125471754189460137
23557571 272 17988649566452298720
23559900 14 18341323513325226193
3004659 81 18260824933907356936
335352 9 18412260645644141245
34797466 226 17775292690216695756
4073 2 18040722510912426242
4214541 1 18410856534107609512
4325135 7 18335140904066089628
497634 4 18408042892373727876
5104073 3 18343301470482226904
559249 180 18335979762017102683
59755656 215 18341895160439670455
6327066 14 17899408685191362525
67856867 119 18263647423628213012
7062679 117 18410858767543149566
7495541 125 17917990607608910008
9709674 26 18272094842161515070

> <PUBCHEM_SHAPE_MULTIPOLES>
400.51
15.09
2.25
0.68
17.51
0.05
0
-3.89
-1.67
-2.43
0.05
0.16
0.02
-0.84

> <PUBCHEM_SHAPE_SELFOVERLAP>
881.973

> <PUBCHEM_SHAPE_VOLUME>
213.4

> <PUBCHEM_COORDINATE_TYPE>
2
5
10

$$$$
