11658882
  -OEChem-10062121563D

 31 32  0     0  0  0  0  0  0999 V2000
    2.7619    2.4553   -0.0007 O   0  0  0  0  0  0  0  0  0  0  0  0
    0.8789    0.3528    0.0000 N   0  0  0  0  0  0  0  0  0  0  0  0
    3.2344    0.1466   -0.0010 N   0  0  0  0  0  0  0  0  0  0  0  0
    0.5766   -3.8447   -0.0005 N   0  0  0  0  0  0  0  0  0  0  0  0
   -2.8425   -2.7200    0.0010 N   0  0  0  0  0  0  0  0  0  0  0  0
   -0.3237   -0.2658    0.0001 C   0  0  0  0  0  0  0  0  0  0  0  0
   -1.4423    0.6520    0.0000 C   0  0  0  0  0  0  0  0  0  0  0  0
   -0.4864   -1.6424    0.0001 C   0  0  0  0  0  0  0  0  0  0  0  0
    0.6569   -2.4337   -0.0002 C   0  0  0  0  0  0  0  0  0  0  0  0
    1.9674   -0.4490   -0.0005 C   0  0  0  0  0  0  0  0  0  0  0  0
    1.9111   -1.8334   -0.0005 C   0  0  0  0  0  0  0  0  0  0  0  0
   -1.9816    1.0944    1.2080 C   0  0  0  0  0  0  0  0  0  0  0  0
   -1.9812    1.0945   -1.2079 C   0  0  0  0  0  0  0  0  0  0  0  0
   -3.0599    1.9793    1.2079 C   0  0  0  0  0  0  0  0  0  0  0  0
   -3.0593    1.9795   -1.2081 C   0  0  0  0  0  0  0  0  0  0  0  0
   -3.5987    2.4218   -0.0001 C   0  0  0  0  0  0  0  0  0  0  0  0
    3.5441    1.5102   -0.0010 C   0  0  0  0  0  0  0  0  0  0  0  0
   -1.7900   -2.2387    0.0006 C   0  0  0  0  0  0  0  0  0  0  0  0
    5.0344    1.7413    0.0030 C   0  0  0  0  0  0  0  0  0  0  0  0
    2.8151   -2.4356   -0.0008 H   0  0  0  0  0  0  0  0  0  0  0  0
   -1.5728    0.7594    2.1584 H   0  0  0  0  0  0  0  0  0  0  0  0
   -1.5721    0.7595   -2.1583 H   0  0  0  0  0  0  0  0  0  0  0  0
    4.0214   -0.4992   -0.0007 H   0  0  0  0  0  0  0  0  0  0  0  0
   -3.4799    2.3239    2.1484 H   0  0  0  0  0  0  0  0  0  0  0  0
   -3.4789    2.3243   -2.1487 H   0  0  0  0  0  0  0  0  0  0  0  0
   -4.4383    3.1109   -0.0003 H   0  0  0  0  0  0  0  0  0  0  0  0
   -0.3186   -4.3139    0.0004 H   0  0  0  0  0  0  0  0  0  0  0  0
    1.4256   -4.3949    0.0000 H   0  0  0  0  0  0  0  0  0  0  0  0
    5.4727    1.3120    0.9083 H   0  0  0  0  0  0  0  0  0  0  0  0
    5.2430    2.8145   -0.0184 H   0  0  0  0  0  0  0  0  0  0  0  0
    5.4848    1.2755   -0.8780 H   0  0  0  0  0  0  0  0  0  0  0  0
  1 17  2  0  0  0  0
  2  6  1  0  0  0  0
  2 10  2  0  0  0  0
  3 10  1  0  0  0  0
  3 17  1  0  0  0  0
  3 23  1  0  0  0  0
  4  9  1  0  0  0  0
  4 27  1  0  0  0  0
  4 28  1  0  0  0  0
  5 18  3  0  0  0  0
  6  7  1  0  0  0  0
  6  8  2  0  0  0  0
  7 12  2  0  0  0  0
  7 13  1  0  0  0  0
  8  9  1  0  0  0  0
  8 18  1  0  0  0  0
  9 11  2  0  0  0  0
 10 11  1  0  0  0  0
 11 20  1  0  0  0  0
 12 14  1  0  0  0  0
 12 21  1  0  0  0  0
 13 15  2  0  0  0  0
 13 22  1  0  0  0  0
 14 16  2  0  0  0  0
 14 24  1  0  0  0  0
 15 16  1  0  0  0  0
 15 25  1  0  0  0  0
 16 26  1  0  0  0  0
 17 19  1  0  0  0  0
 19 29  1  0  0  0  0
 19 30  1  0  0  0  0
 19 31  1  0  0  0  0
M  END
> <PUBCHEM_COMPOUND_CID>
11658882

> <PUBCHEM_CONFORMER_RMSD>
0.6

> <PUBCHEM_CONFORMER_DIVERSEORDER>
1
2
6
5
3
4
7

> <PUBCHEM_MMFF94_PARTIAL_CHARGES>
27
1 -0.57
10 0.43
11 -0.15
12 -0.15
13 -0.15
14 -0.15
15 -0.15
16 -0.15
17 0.57
18 0.48
19 0.06
2 -0.62
20 0.15
21 0.15
22 0.15
23 0.37
24 0.15
25 0.15
26 0.15
27 0.4
28 0.4
3 -0.55
4 -0.9
5 -0.56
6 0.31
8 0.07
9 0.1

> <PUBCHEM_EFFECTIVE_ROTOR_COUNT>
3

> <PUBCHEM_PHARMACOPHORE_FEATURES>
7
1 1 acceptor
1 3 donor
1 4 cation
1 4 donor
1 5 acceptor
6 2 6 8 9 10 11 rings
6 7 12 13 14 15 16 rings

> <PUBCHEM_HEAVY_ATOM_COUNT>
19

> <PUBCHEM_ATOM_DEF_STEREO_COUNT>
0

> <PUBCHEM_ATOM_UDEF_STEREO_COUNT>
0

> <PUBCHEM_BOND_DEF_STEREO_COUNT>
0

> <PUBCHEM_BOND_UDEF_STEREO_COUNT>
0

> <PUBCHEM_ISOTOPIC_ATOM_COUNT>
0

> <PUBCHEM_COMPONENT_COUNT>
1

> <PUBCHEM_CACTVS_TAUTO_COUNT>
13

> <PUBCHEM_CONFORMER_ID>
00B1E68200000001

> <PUBCHEM_MMFF94_ENERGY>
63.6834

> <PUBCHEM_FEATURE_SELFOVERLAP>
35.52

> <PUBCHEM_SHAPE_FINGERPRINT>
10411042 1 17257653851310013510
10967382 1 18050286968661075846
1100329 8 18265614269631374530
11582403 64 16518742111285464677
11725454 13 16807264948887528317
12173636 292 18340204188854798292
12390115 104 18269009707513846704
12788726 201 18122610906574898938
13134695 92 17470726607005727703
13140716 1 18336828593974337018
13583140 156 17168136793657665369
14142880 1 18261946461500842244
14614273 12 18334855052021994439
14787075 74 18202563986796535289
15042514 8 17905047311251257330
15342168 16 18338241449146794309
16945 1 18122626041828419334
1741750 31 18412823599264840648
18186145 218 18198906894393511757
18219364 16 18408892810519642840
204376 136 18409731733607010064
20510252 161 18197498630546498434
20671657 1 18195253213064998278
21524375 3 18334012813330260952
21639500 275 18121773933391465213
21756936 100 17417267454051952600
22182937 141 18341336672915019448
2255824 54 17981886337306825039
2334 1 18410572920363876910
23402539 116 18053942041649073646
23419403 2 13248398779213372265
23558518 356 18261397792699087458
23559900 14 18201160945830571214
238 59 17539653973222909957
2748010 2 18410584976294989342
283562 15 18266455597415247811
3091708 16 9265309055690688490
350125 39 18410579525912568146
474 4 18269269062934112512
633830 44 17843410570519626077
77492 1 17270583674165302273
81228 2 18047483501730844978
8272917 22 17693942895663108429
84936 182 18057030324972045360

> <PUBCHEM_SHAPE_MULTIPOLES>
365.22
6.88
3.98
0.92
4.54
2.92
0
-6.99
0
-0.04
0
-0.86
-0.45
0

> <PUBCHEM_SHAPE_SELFOVERLAP>
788.338

> <PUBCHEM_SHAPE_VOLUME>
197.5

> <PUBCHEM_COORDINATE_TYPE>
2
5
10

$$$$
