16050449
  -OEChem-10052120443D

 60 64  0     0  0  0  0  0  0999 V2000
    1.1437    5.8867   -1.1417 F   0  0  0  0  0  0  0  0  0  0  0  0
    5.4300   -0.0953   -2.2602 O   0  0  0  0  0  0  0  0  0  0  0  0
   -1.7303   -0.8615    1.0955 N   0  0  0  0  0  0  0  0  0  0  0  0
   -4.0502   -2.3920    0.9133 N   0  0  0  0  0  0  0  0  0  0  0  0
   -2.6214    0.7905   -0.1121 N   0  0  0  0  0  0  0  0  0  0  0  0
    3.7130   -1.2727    0.5710 N   0  0  0  0  0  0  0  0  0  0  0  0
    1.4846   -0.5794    0.8166 N   0  0  0  0  0  0  0  0  0  0  0  0
    3.0743   -0.2925    2.6047 N   0  0  0  0  0  0  0  0  0  0  0  0
   -5.1543   -1.1151   -1.8504 C   0  0  0  0  0  0  0  0  0  0  0  0
   -6.4350   -1.2191   -2.6207 C   0  0  0  0  0  0  0  0  0  0  0  0
   -5.6815   -2.4609   -2.2438 C   0  0  0  0  0  0  0  0  0  0  0  0
   -5.2019   -0.7097   -0.4189 C   0  0  0  0  0  0  0  0  0  0  0  0
   -4.0076   -1.2194    0.3356 C   0  0  0  0  0  0  0  0  0  0  0  0
   -2.8235   -0.3969    0.4074 C   0  0  0  0  0  0  0  0  0  0  0  0
   -0.7558    0.0972    1.0119 C   0  0  0  0  0  0  0  0  0  0  0  0
    4.7866   -2.2995   -1.4177 C   0  0  0  0  0  0  0  0  0  0  0  0
   -1.3345    1.1050    0.2606 C   0  0  0  0  0  0  0  0  0  0  0  0
   -1.7778   -2.1005    1.7052 C   0  0  0  0  0  0  0  0  0  0  0  0
   -2.9158   -2.8124    1.5961 C   0  0  0  0  0  0  0  0  0  0  0  0
    3.4903   -1.7488   -0.7751 C   0  0  0  0  0  0  0  0  0  0  0  0
    0.5489   -0.0150    1.6078 C   0  0  0  0  0  0  0  0  0  0  0  0
    5.8852   -1.2174   -1.5151 C   0  0  0  0  0  0  0  0  0  0  0  0
    4.4351   -2.7975   -2.8351 C   0  0  0  0  0  0  0  0  0  0  0  0
    5.3302   -3.4900   -0.6061 C   0  0  0  0  0  0  0  0  0  0  0  0
   -0.6965    2.3359   -0.1004 C   0  0  0  0  0  0  0  0  0  0  0  0
    2.7269   -0.6970    1.3549 C   0  0  0  0  0  0  0  0  0  0  0  0
    0.7960    0.4291    2.8908 C   0  0  0  0  0  0  0  0  0  0  0  0
    0.0337    2.4249   -1.2875 C   0  0  0  0  0  0  0  0  0  0  0  0
   -0.8026    3.4512    0.7335 C   0  0  0  0  0  0  0  0  0  0  0  0
    2.0897    0.2632    3.3411 C   0  0  0  0  0  0  0  0  0  0  0  0
    0.6549    3.6234   -1.6389 C   0  0  0  0  0  0  0  0  0  0  0  0
   -0.1816    4.6497    0.3820 C   0  0  0  0  0  0  0  0  0  0  0  0
    0.5473    4.7358   -0.8041 C   0  0  0  0  0  0  0  0  0  0  0  0
   -4.2884   -0.7295   -2.3746 H   0  0  0  0  0  0  0  0  0  0  0  0
   -6.4236   -0.9196   -3.6615 H   0  0  0  0  0  0  0  0  0  0  0  0
   -7.3693   -1.0220   -2.1096 H   0  0  0  0  0  0  0  0  0  0  0  0
   -6.1126   -3.0985   -1.4817 H   0  0  0  0  0  0  0  0  0  0  0  0
   -5.1626   -2.9946   -3.0307 H   0  0  0  0  0  0  0  0  0  0  0  0
   -6.1053   -1.0920    0.0732 H   0  0  0  0  0  0  0  0  0  0  0  0
   -5.2455    0.3830   -0.3494 H   0  0  0  0  0  0  0  0  0  0  0  0
   -0.9088   -2.4555    2.2441 H   0  0  0  0  0  0  0  0  0  0  0  0
   -2.9898   -3.7895    2.0614 H   0  0  0  0  0  0  0  0  0  0  0  0
    2.7295   -2.5401   -0.7555 H   0  0  0  0  0  0  0  0  0  0  0  0
    3.0892   -0.9335   -1.3905 H   0  0  0  0  0  0  0  0  0  0  0  0
    6.1849   -0.8586   -0.5254 H   0  0  0  0  0  0  0  0  0  0  0  0
    6.7869   -1.6078   -2.0011 H   0  0  0  0  0  0  0  0  0  0  0  0
    3.7277   -3.6339   -2.7925 H   0  0  0  0  0  0  0  0  0  0  0  0
    5.3284   -3.1473   -3.3646 H   0  0  0  0  0  0  0  0  0  0  0  0
    3.9713   -2.0118   -3.4410 H   0  0  0  0  0  0  0  0  0  0  0  0
    5.6676   -3.1889    0.3910 H   0  0  0  0  0  0  0  0  0  0  0  0
    4.5657   -4.2651   -0.4812 H   0  0  0  0  0  0  0  0  0  0  0  0
    6.1872   -3.9497   -1.1121 H   0  0  0  0  0  0  0  0  0  0  0  0
    4.6308   -1.3489    0.9924 H   0  0  0  0  0  0  0  0  0  0  0  0
    0.0348    0.8808    3.5146 H   0  0  0  0  0  0  0  0  0  0  0  0
    0.1281    1.5671   -1.9494 H   0  0  0  0  0  0  0  0  0  0  0  0
   -1.3669    3.4011    1.6619 H   0  0  0  0  0  0  0  0  0  0  0  0
    5.4076   -0.3503   -3.1977 H   0  0  0  0  0  0  0  0  0  0  0  0
    2.3793    0.5823    4.3367 H   0  0  0  0  0  0  0  0  0  0  0  0
    1.2228    3.6907   -2.5621 H   0  0  0  0  0  0  0  0  0  0  0  0
   -0.2652    5.5159    1.0316 H   0  0  0  0  0  0  0  0  0  0  0  0
  1 33  1  0  0  0  0
  2 22  1  0  0  0  0
  2 57  1  0  0  0  0
  3 14  1  0  0  0  0
  3 15  1  0  0  0  0
  3 18  1  0  0  0  0
  4 13  2  0  0  0  0
  4 19  1  0  0  0  0
  5 14  2  0  0  0  0
  5 17  1  0  0  0  0
  6 20  1  0  0  0  0
  6 26  1  0  0  0  0
  6 53  1  0  0  0  0
  7 21  2  0  0  0  0
  7 26  1  0  0  0  0
  8 26  2  0  0  0  0
  8 30  1  0  0  0  0
  9 10  1  0  0  0  0
  9 11  1  0  0  0  0
  9 12  1  0  0  0  0
  9 34  1  0  0  0  0
 10 11  1  0  0  0  0
 10 35  1  0  0  0  0
 10 36  1  0  0  0  0
 11 37  1  0  0  0  0
 11 38  1  0  0  0  0
 12 13  1  0  0  0  0
 12 39  1  0  0  0  0
 12 40  1  0  0  0  0
 13 14  1  0  0  0  0
 15 17  2  0  0  0  0
 15 21  1  0  0  0  0
 16 20  1  0  0  0  0
 16 22  1  0  0  0  0
 16 23  1  0  0  0  0
 16 24  1  0  0  0  0
 17 25  1  0  0  0  0
 18 19  2  0  0  0  0
 18 41  1  0  0  0  0
 19 42  1  0  0  0  0
 20 43  1  0  0  0  0
 20 44  1  0  0  0  0
 21 27  1  0  0  0  0
 22 45  1  0  0  0  0
 22 46  1  0  0  0  0
 23 47  1  0  0  0  0
 23 48  1  0  0  0  0
 23 49  1  0  0  0  0
 24 50  1  0  0  0  0
 24 51  1  0  0  0  0
 24 52  1  0  0  0  0
 25 28  2  0  0  0  0
 25 29  1  0  0  0  0
 27 30  2  0  0  0  0
 27 54  1  0  0  0  0
 28 31  1  0  0  0  0
 28 55  1  0  0  0  0
 29 32  2  0  0  0  0
 29 56  1  0  0  0  0
 30 58  1  0  0  0  0
 31 33  2  0  0  0  0
 31 59  1  0  0  0  0
 32 33  1  0  0  0  0
 32 60  1  0  0  0  0
M  END
> <PUBCHEM_COMPOUND_CID>
16050449

> <PUBCHEM_CONFORMER_RMSD>
1

> <PUBCHEM_CONFORMER_DIVERSEORDER>
1
130
132
56
27
24
129
49
85
119
113
25
118
74
122
57
107
68
42
78
20
83
58
37
108
125
92
19
90
84
29
13
94
76
109
91
66
36
30
15
72
11
86
7
82
70
48
79
87
60
44
81
55
28
45
53
103
101
69
8
114
116
126
115
52
61
121
12
104
120
117
98
95
93
131
39
43
110
38
54
123
128
64
99
46
40
124
97
59
100
34
41
106
65
50
112
75
17
89
73
51
71
67
127
63
18
2
6
35
22
102
31
105
62
23
77
80
47
16
111
21
3
9
88
14
33
32
96
10
5
26
4

> <PUBCHEM_MMFF94_PARTIAL_CHARGES>
45
1 -0.19
10 -0.2
11 -0.2
12 0.16
13 0.47
14 0.1
15 -0.2
17 0.17
18 -0.18
19 0.02
2 -0.68
20 0.37
21 0.36
22 0.28
25 0.05
26 0.72
27 -0.15
28 -0.15
29 -0.15
3 0.33
30 0.16
31 -0.15
32 -0.15
33 0.19
34 0.1
35 0.1
36 0.1
37 0.1
38 0.1
4 -0.62
41 0.15
42 0.15
5 -0.57
53 0.4
54 0.15
55 0.15
56 0.15
57 0.4
58 0.15
59 0.15
6 -0.87
60 0.15
7 -0.62
8 -0.62
9 -0.19

> <PUBCHEM_EFFECTIVE_ROTOR_COUNT>
8.6

> <PUBCHEM_PHARMACOPHORE_FEATURES>
12
1 2 acceptor
1 2 donor
1 4 acceptor
1 6 donor
1 7 acceptor
3 16 23 24 hydrophobe
3 3 5 14 cation
4 6 7 8 26 cation
5 3 5 14 15 17 rings
6 25 28 29 31 32 33 rings
6 3 4 13 14 18 19 rings
6 7 8 21 26 27 30 rings

> <PUBCHEM_HEAVY_ATOM_COUNT>
33

> <PUBCHEM_ATOM_DEF_STEREO_COUNT>
0

> <PUBCHEM_ATOM_UDEF_STEREO_COUNT>
0

> <PUBCHEM_BOND_DEF_STEREO_COUNT>
0

> <PUBCHEM_BOND_UDEF_STEREO_COUNT>
0

> <PUBCHEM_ISOTOPIC_ATOM_COUNT>
0

> <PUBCHEM_COMPONENT_COUNT>
1

> <PUBCHEM_CACTVS_TAUTO_COUNT>
6

> <PUBCHEM_CONFORMER_ID>
00F4E91100000001

> <PUBCHEM_MMFF94_ENERGY>
98.4604

> <PUBCHEM_FEATURE_SELFOVERLAP>
61.014

> <PUBCHEM_SHAPE_FINGERPRINT>
10165383 225 17476932246496613056
10369192 42 17701801380545872720
11297010 23 17830713706732203517
11331351 85 18202566147001840985
11488393 25 17470197072277671618
11607047 403 16682353628654986305
12623949 98 17417520423256859879
12788726 201 17969223334898586762
12988421 55 8934999239777959143
131258 43 18129956705047114824
13540713 4 17461430606572789323
13757389 114 18052267189356668277
13782708 43 17989198210054552662
14910302 57 18197779895571140506
14955137 171 18117867472016155401
15324884 4 18270943722449095915
15475509 8 18339359665852347537
15664445 248 18262508290668045240
16991981 162 17833297241519949276
1813 80 18340751720191852013
19315092 285 16773792640920634935
19438510 23 12396306967064330870
20642791 239 17240770596413478085
21133665 82 17248358537344582476
23559900 14 18335702814284224659
23569914 2 12326455092411296495
3610482 184 17247563233933225430
376196 1 12179846078306856970
4017518 198 17692814101191694188
4353968 344 18337119952546671542
437795 70 18340478964336434197
5081480 168 18113615733745057901
613672 6 18408885161251395346

> <PUBCHEM_SHAPE_MULTIPOLES>
636.1
12.21
5.93
3.09
1.07
10.13
-0.6
-17.62
10.88
-1.91
3.36
-1.24
-1.12
0.84

> <PUBCHEM_SHAPE_SELFOVERLAP>
1385.893

> <PUBCHEM_SHAPE_VOLUME>
349.8

> <PUBCHEM_COORDINATE_TYPE>
2
5
10

$$$$
