46228822
  -OEChem-10062122033D

 60 64  0     0  0  0  0  0  0999 V2000
   -3.7871    1.4182   -0.6766 O   0  0  0  0  0  0  0  0  0  0  0  0
    1.7075    3.4502    0.2427 O   0  0  0  0  0  0  0  0  0  0  0  0
   -3.4421   -3.9115   -0.9860 O   0  0  0  0  0  0  0  0  0  0  0  0
    2.7079   -0.7585   -0.2680 N   0  0  0  0  0  0  0  0  0  0  0  0
    3.9575   -1.1553    0.0275 N   0  0  0  0  0  0  0  0  0  0  0  0
    1.2482    1.2134   -0.2979 N   0  0  0  0  0  0  0  0  0  0  0  0
   -3.6054   -1.5598   -0.7383 N   0  0  0  0  0  0  0  0  0  0  0  0
   -3.7038   -2.8606    1.1225 N   0  0  0  0  0  0  0  0  0  0  0  0
    5.9538   -0.0506    0.8647 C   0  0  0  0  0  0  0  0  0  0  0  0
    4.5429   -0.0291    0.4432 C   0  0  0  0  0  0  0  0  0  0  0  0
    6.6759   -1.4459    0.7882 C   0  0  0  0  0  0  0  0  0  0  0  0
    6.8393    0.9038   -0.0078 C   0  0  0  0  0  0  0  0  0  0  0  0
    6.1258    0.4053    2.3542 C   0  0  0  0  0  0  0  0  0  0  0  0
    3.6741    1.0782    0.4136 C   0  0  0  0  0  0  0  0  0  0  0  0
    2.4868    0.5706   -0.0545 C   0  0  0  0  0  0  0  0  0  0  0  0
    1.7843   -1.6890   -0.7473 C   0  0  0  0  0  0  0  0  0  0  0  0
    0.9239    2.5689   -0.1457 C   0  0  0  0  0  0  0  0  0  0  0  0
    1.2042   -1.5124   -2.0036 C   0  0  0  0  0  0  0  0  0  0  0  0
    1.4405   -2.7946    0.0306 C   0  0  0  0  0  0  0  0  0  0  0  0
   -0.4361    2.9401   -0.5035 C   0  0  0  0  0  0  0  0  0  0  0  0
   -3.7596   -0.7294    0.3719 C   0  0  0  0  0  0  0  0  0  0  0  0
   -3.8198   -1.5261    1.5114 C   0  0  0  0  0  0  0  0  0  0  0  0
   -3.8468    0.6430    0.4320 C   0  0  0  0  0  0  0  0  0  0  0  0
    0.2804   -2.4417   -2.4821 C   0  0  0  0  0  0  0  0  0  0  0  0
    0.5165   -3.7238   -0.4479 C   0  0  0  0  0  0  0  0  0  0  0  0
   -1.4617    1.9985   -0.4184 C   0  0  0  0  0  0  0  0  0  0  0  0
   -2.7660    2.3548   -0.7615 C   0  0  0  0  0  0  0  0  0  0  0  0
   -0.0633   -3.5474   -1.7043 C   0  0  0  0  0  0  0  0  0  0  0  0
   -0.7147    4.2382   -0.9317 C   0  0  0  0  0  0  0  0  0  0  0  0
   -3.9707   -0.9924    2.7713 C   0  0  0  0  0  0  0  0  0  0  0  0
   -4.0003    1.2088    1.7016 C   0  0  0  0  0  0  0  0  0  0  0  0
   -3.5672   -2.9117   -0.2935 C   0  0  0  0  0  0  0  0  0  0  0  0
   -4.0616    0.4004    2.8581 C   0  0  0  0  0  0  0  0  0  0  0  0
   -3.0446    3.6529   -1.1897 C   0  0  0  0  0  0  0  0  0  0  0  0
   -2.0189    4.5944   -1.2751 C   0  0  0  0  0  0  0  0  0  0  0  0
    6.6711   -1.8312   -0.2381 H   0  0  0  0  0  0  0  0  0  0  0  0
    6.1690   -2.1820    1.4231 H   0  0  0  0  0  0  0  0  0  0  0  0
    7.7192   -1.3804    1.1174 H   0  0  0  0  0  0  0  0  0  0  0  0
    6.4897    1.9402    0.0625 H   0  0  0  0  0  0  0  0  0  0  0  0
    6.7985    0.6120   -1.0637 H   0  0  0  0  0  0  0  0  0  0  0  0
    7.8876    0.8848    0.3109 H   0  0  0  0  0  0  0  0  0  0  0  0
    5.5628   -0.2514    3.0276 H   0  0  0  0  0  0  0  0  0  0  0  0
    5.7533    1.4258    2.4999 H   0  0  0  0  0  0  0  0  0  0  0  0
    7.1773    0.3887    2.6622 H   0  0  0  0  0  0  0  0  0  0  0  0
    3.8897    2.0987    0.6944 H   0  0  0  0  0  0  0  0  0  0  0  0
    0.5395    0.5904   -0.6688 H   0  0  0  0  0  0  0  0  0  0  0  0
    1.4664   -0.6632   -2.6300 H   0  0  0  0  0  0  0  0  0  0  0  0
    1.8791   -2.9455    1.0141 H   0  0  0  0  0  0  0  0  0  0  0  0
   -0.1697   -2.3057   -3.4610 H   0  0  0  0  0  0  0  0  0  0  0  0
    0.2475   -4.5841    0.1580 H   0  0  0  0  0  0  0  0  0  0  0  0
   -1.2718    0.9897   -0.0657 H   0  0  0  0  0  0  0  0  0  0  0  0
   -3.5323   -1.2401   -1.6962 H   0  0  0  0  0  0  0  0  0  0  0  0
   -3.7160   -3.6523    1.7537 H   0  0  0  0  0  0  0  0  0  0  0  0
    0.0698    4.9863   -1.0105 H   0  0  0  0  0  0  0  0  0  0  0  0
   -0.7797   -4.2725   -2.0786 H   0  0  0  0  0  0  0  0  0  0  0  0
   -4.0179   -1.6131    3.6579 H   0  0  0  0  0  0  0  0  0  0  0  0
   -4.0841    2.2872    1.8179 H   0  0  0  0  0  0  0  0  0  0  0  0
   -4.1832    0.8711    3.8304 H   0  0  0  0  0  0  0  0  0  0  0  0
   -4.0587    3.9357   -1.4580 H   0  0  0  0  0  0  0  0  0  0  0  0
   -2.2360    5.6046   -1.6097 H   0  0  0  0  0  0  0  0  0  0  0  0
  1 23  1  0  0  0  0
  1 27  1  0  0  0  0
  2 17  2  0  0  0  0
  3 32  2  0  0  0  0
  4  5  1  0  0  0  0
  4 15  1  0  0  0  0
  4 16  1  0  0  0  0
  5 10  2  0  0  0  0
  6 15  1  0  0  0  0
  6 17  1  0  0  0  0
  6 46  1  0  0  0  0
  7 21  1  0  0  0  0
  7 32  1  0  0  0  0
  7 52  1  0  0  0  0
  8 22  1  0  0  0  0
  8 32  1  0  0  0  0
  8 53  1  0  0  0  0
  9 10  1  0  0  0  0
  9 11  1  0  0  0  0
  9 12  1  0  0  0  0
  9 13  1  0  0  0  0
 10 14  1  0  0  0  0
 11 36  1  0  0  0  0
 11 37  1  0  0  0  0
 11 38  1  0  0  0  0
 12 39  1  0  0  0  0
 12 40  1  0  0  0  0
 12 41  1  0  0  0  0
 13 42  1  0  0  0  0
 13 43  1  0  0  0  0
 13 44  1  0  0  0  0
 14 15  2  0  0  0  0
 14 45  1  0  0  0  0
 16 18  2  0  0  0  0
 16 19  1  0  0  0  0
 17 20  1  0  0  0  0
 18 24  1  0  0  0  0
 18 47  1  0  0  0  0
 19 25  2  0  0  0  0
 19 48  1  0  0  0  0
 20 26  2  0  0  0  0
 20 29  1  0  0  0  0
 21 22  2  0  0  0  0
 21 23  1  0  0  0  0
 22 30  1  0  0  0  0
 23 31  2  0  0  0  0
 24 28  2  0  0  0  0
 24 49  1  0  0  0  0
 25 28  1  0  0  0  0
 25 50  1  0  0  0  0
 26 27  1  0  0  0  0
 26 51  1  0  0  0  0
 27 34  2  0  0  0  0
 28 55  1  0  0  0  0
 29 35  2  0  0  0  0
 29 54  1  0  0  0  0
 30 33  2  0  0  0  0
 30 56  1  0  0  0  0
 31 33  1  0  0  0  0
 31 57  1  0  0  0  0
 33 58  1  0  0  0  0
 34 35  1  0  0  0  0
 34 59  1  0  0  0  0
 35 60  1  0  0  0  0
M  END
> <PUBCHEM_COMPOUND_CID>
46228822

> <PUBCHEM_CONFORMER_RMSD>
1

> <PUBCHEM_CONFORMER_DIVERSEORDER>
1
112
157
205
200
165
176
160
181
94
210
68
106
175
187
67
204
72
78
121
114
184
110
34
14
186
45
129
111
154
150
118
5
84
41
173
54
145
124
71
161
88
194
50
101
44
119
4
75
63
190
107
208
97
108
185
156
21
193
86
98
139
196
120
13
96
79
116
195
52
103
102
168
201
15
105
59
29
133
80
159
211
46
91
36
138
64
166
33
3
104
49
169
192
30
8
38
92
130
180
206
18
158
148
209
183
152
22
58
172
53
93
122
189
24
57
25
89
127
19
164
137
16
174
70
117
66
37
142
83
27
177
85
123
143
135
2
178
132
39
6
56
62
197
126
163
35
131
99
65
113
146
95
77
203
10
182
170
82
109
153
73
140
47
69
207
9
125
199
167
179
60
76
134
28
87
7
162
43
20
144
191
31
90
136
149
155
100
11
202
23
48
115
188
17
12
51
171
74
61
151
198
40
81
32
26
42
141
55
128
147

> <PUBCHEM_MMFF94_PARTIAL_CHARGES>
48
1 -0.17
10 0.11
14 -0.15
15 -0.09
16 -0.02
17 0.54
18 -0.15
19 -0.15
2 -0.57
20 0.09
21 0.12
22 0.12
23 0.08
24 -0.15
25 -0.15
26 -0.15
27 0.08
28 -0.15
29 -0.15
3 -0.57
30 -0.15
31 -0.15
32 0.69
33 -0.15
34 -0.15
35 -0.15
4 0.59
45 0.15
46 0.37
47 0.15
48 0.15
49 0.15
5 -0.71
50 0.15
51 0.15
52 0.37
53 0.37
54 0.15
55 0.15
56 0.15
57 0.15
58 0.15
59 0.15
6 -0.49
60 0.15
7 -0.55
8 -0.55
9 0.18

> <PUBCHEM_EFFECTIVE_ROTOR_COUNT>
7

> <PUBCHEM_PHARMACOPHORE_FEATURES>
13
1 1 acceptor
1 2 acceptor
1 3 acceptor
1 5 acceptor
1 6 donor
1 7 donor
1 8 donor
4 9 11 12 13 hydrophobe
5 4 5 10 14 15 rings
5 7 8 21 22 32 rings
6 16 18 19 24 25 28 rings
6 20 26 27 29 34 35 rings
6 21 22 23 30 31 33 rings

> <PUBCHEM_HEAVY_ATOM_COUNT>
35

> <PUBCHEM_ATOM_DEF_STEREO_COUNT>
0

> <PUBCHEM_ATOM_UDEF_STEREO_COUNT>
0

> <PUBCHEM_BOND_DEF_STEREO_COUNT>
0

> <PUBCHEM_BOND_UDEF_STEREO_COUNT>
0

> <PUBCHEM_ISOTOPIC_ATOM_COUNT>
0

> <PUBCHEM_COMPONENT_COUNT>
1

> <PUBCHEM_CACTVS_TAUTO_COUNT>
12

> <PUBCHEM_CONFORMER_ID>
02C1655600000001

> <PUBCHEM_MMFF94_ENERGY>
135.8142

> <PUBCHEM_FEATURE_SELFOVERLAP>
66.135

> <PUBCHEM_SHAPE_FINGERPRINT>
10010297 198 18262228916527389570
10483366 6 18265029433209623117
10815517 723 18129379483102057198
11488393 25 17628644046877629958
11828532 37 17242474917436975027
12106331 60 18113911459249046682
12202916 173 18334849512015472251
12422481 6 18273218586632987346
13402501 40 18338516331448523181
140371 6 18121220874986220932
14068700 675 17701525437127887847
14117953 113 18341048610117736911
14395042 24 18056207006572080715
14725015 67 18334852874790281611
14844126 61 18260261915609655369
14856354 85 18335990873557063942
15274700 34 18123212319047075083
15276724 80 18268144431113462092
15328829 1 17749963262622676524
15685185 35 16883595525118085148
16112460 7 18057602273398669552
16993438 75 18263350434986548933
17627616 140 17543350917830777205
17913733 40 17988353755470625754
19309040 13 16056055523700162667
19315092 285 17344052233795572013
20764821 26 18336554914368231845
21133410 52 17692247852454729470
21796203 349 17901422122107778808
23559900 14 17333072136907787060
238918 7 18272089362205277606
25019877 29 16485577735252005551
25223398 141 18192447272945593126
3383291 50 18334011662944047449
392239 28 18409730668750305354
437795 96 18338515235883475559
4403749 210 18339060650182376848
469060 322 18339642342919124323
6287921 2 17913239677968756895

> <PUBCHEM_SHAPE_MULTIPOLES>
677.77
12.76
5.84
2.12
19.37
1.69
0.94
-0.98
8.18
-5.41
-3.46
-1.55
-0.8
1.71

> <PUBCHEM_SHAPE_SELFOVERLAP>
1498.908

> <PUBCHEM_SHAPE_VOLUME>
361.8

> <PUBCHEM_COORDINATE_TYPE>
2
5
10

$$$$
