17163635
  -OEChem-10052115183D

 29 31  0     0  0  0  0  0  0999 V2000
   -6.8463    0.5368    0.0011 Cl  0  0  0  0  0  0  0  0  0  0  0  0
   -0.5617   -1.7770   -0.1849 O   0  0  0  0  0  0  0  0  0  0  0  0
   -0.1438    0.4975    0.1000 N   0  0  0  0  0  0  0  0  0  0  0  0
    5.3468    0.4268    0.0352 N   0  0  0  0  0  0  0  0  0  0  0  0
    5.6540   -0.8701   -0.1330 N   0  0  0  0  0  0  0  0  0  0  0  0
    3.3882   -0.5541   -0.0697 C   0  0  0  0  0  0  0  0  0  0  0  0
    4.0030    0.6839    0.0814 C   0  0  0  0  0  0  0  0  0  0  0  0
    1.2512    0.5512    0.0924 C   0  0  0  0  0  0  0  0  0  0  0  0
    1.9856   -0.6310   -0.0653 C   0  0  0  0  0  0  0  0  0  0  0  0
    3.2898    1.8740    0.2399 C   0  0  0  0  0  0  0  0  0  0  0  0
    1.8942    1.7813    0.2422 C   0  0  0  0  0  0  0  0  0  0  0  0
    4.4600   -1.4637   -0.1964 C   0  0  0  0  0  0  0  0  0  0  0  0
   -2.4225   -0.3430   -0.0265 C   0  0  0  0  0  0  0  0  0  0  0  0
   -0.9778   -0.6302   -0.0349 C   0  0  0  0  0  0  0  0  0  0  0  0
   -3.3243   -1.3150    0.4067 C   0  0  0  0  0  0  0  0  0  0  0  0
   -2.8888    0.9012   -0.4511 C   0  0  0  0  0  0  0  0  0  0  0  0
   -4.6922   -1.0430    0.4152 C   0  0  0  0  0  0  0  0  0  0  0  0
   -4.2569    1.1732   -0.4427 C   0  0  0  0  0  0  0  0  0  0  0  0
   -5.1585    0.2011   -0.0095 C   0  0  0  0  0  0  0  0  0  0  0  0
    1.5650   -1.6160   -0.1863 H   0  0  0  0  0  0  0  0  0  0  0  0
    3.7910    2.8285    0.3561 H   0  0  0  0  0  0  0  0  0  0  0  0
    1.3138    2.6938    0.3639 H   0  0  0  0  0  0  0  0  0  0  0  0
   -0.5853    1.3983    0.2616 H   0  0  0  0  0  0  0  0  0  0  0  0
    4.4187   -2.5352   -0.3322 H   0  0  0  0  0  0  0  0  0  0  0  0
    6.1063    1.0917    0.1120 H   0  0  0  0  0  0  0  0  0  0  0  0
   -2.9788   -2.2885    0.7449 H   0  0  0  0  0  0  0  0  0  0  0  0
   -2.2299    1.6747   -0.8337 H   0  0  0  0  0  0  0  0  0  0  0  0
   -5.3834   -1.8095    0.7563 H   0  0  0  0  0  0  0  0  0  0  0  0
   -4.6073    2.1439   -0.7843 H   0  0  0  0  0  0  0  0  0  0  0  0
  1 19  1  0  0  0  0
  2 14  2  0  0  0  0
  3  8  1  0  0  0  0
  3 14  1  0  0  0  0
  3 23  1  0  0  0  0
  4  5  1  0  0  0  0
  4  7  1  0  0  0  0
  4 25  1  0  0  0  0
  5 12  2  0  0  0  0
  6  7  2  0  0  0  0
  6  9  1  0  0  0  0
  6 12  1  0  0  0  0
  7 10  1  0  0  0  0
  8  9  2  0  0  0  0
  8 11  1  0  0  0  0
  9 20  1  0  0  0  0
 10 11  2  0  0  0  0
 10 21  1  0  0  0  0
 11 22  1  0  0  0  0
 12 24  1  0  0  0  0
 13 14  1  0  0  0  0
 13 15  2  0  0  0  0
 13 16  1  0  0  0  0
 15 17  1  0  0  0  0
 15 26  1  0  0  0  0
 16 18  2  0  0  0  0
 16 27  1  0  0  0  0
 17 19  2  0  0  0  0
 17 28  1  0  0  0  0
 18 19  1  0  0  0  0
 18 29  1  0  0  0  0
M  END
> <PUBCHEM_COMPOUND_CID>
17163635

> <PUBCHEM_CONFORMER_RMSD>
0.6

> <PUBCHEM_CONFORMER_DIVERSEORDER>
1
4
6
5
2
3

> <PUBCHEM_MMFF94_PARTIAL_CHARGES>
28
1 -0.18
10 -0.15
11 -0.15
12 0.14
13 0.09
14 0.54
15 -0.15
16 -0.15
17 -0.15
18 -0.15
19 0.18
2 -0.57
20 0.15
21 0.15
22 0.15
23 0.37
24 0.15
25 0.27
26 0.15
27 0.15
28 0.15
29 0.15
3 -0.55
4 0.3
5 -0.71
7 -0.15
8 0.12
9 -0.15

> <PUBCHEM_EFFECTIVE_ROTOR_COUNT>
3

> <PUBCHEM_PHARMACOPHORE_FEATURES>
7
1 2 acceptor
1 3 donor
1 4 donor
1 5 acceptor
5 4 5 6 7 12 rings
6 13 15 16 17 18 19 rings
6 6 7 8 9 10 11 rings

> <PUBCHEM_HEAVY_ATOM_COUNT>
19

> <PUBCHEM_ATOM_DEF_STEREO_COUNT>
0

> <PUBCHEM_ATOM_UDEF_STEREO_COUNT>
0

> <PUBCHEM_BOND_DEF_STEREO_COUNT>
0

> <PUBCHEM_BOND_UDEF_STEREO_COUNT>
0

> <PUBCHEM_ISOTOPIC_ATOM_COUNT>
0

> <PUBCHEM_COMPONENT_COUNT>
1

> <PUBCHEM_CACTVS_TAUTO_COUNT>
4

> <PUBCHEM_CONFORMER_ID>
0105E57300000001

> <PUBCHEM_MMFF94_ENERGY>
50.9872

> <PUBCHEM_FEATURE_SELFOVERLAP>
35.613

> <PUBCHEM_SHAPE_FINGERPRINT>
10366900 7 15357695301612054485
12107183 9 17688306789888530377
12236239 1 17346597474121897655
12403259 415 18260820497586468365
13081056 2 18408319995252903461
13167372 99 18131075888031379881
13167823 11 18340483460539789591
13533116 47 17060341782357715446
13675066 3 18411417357862087978
14251764 18 18410009952892664488
14341114 176 18335144206484730105
15099037 51 18412825785028680358
15183329 4 18411421678578127832
15196674 1 18410855507399201793
15242439 84 18334012791744628595
15531645 54 18410293601259963975
15788980 27 18060416932385516925
17834072 8 18411420596267416220
17844677 252 18408892844974287549
1813 80 16805318916163981852
18186145 218 17895183428669766224
19141452 34 18412261778629478895
19433438 28 18260548948299881313
200 152 17846778503283614529
20645477 70 18343023264112959782
21033648 29 18262220184415426941
21065198 57 18337673125908989779
21267235 1 18340775862319125822
21279426 13 18193838132846293687
221357 26 18411978044563403749
2215653 11 18413107247104593703
22224240 67 16702012077269613694
23402539 116 17988918985946036909
23536379 177 18342458127846741169
23559900 14 18410007779729215057
239999 70 18410577280251502598
26918003 58 18343865528146761291
29717793 49 17561089094251086380
3004659 81 18260269612744612478
335352 9 18412263930719220262
351380 180 18411981373289184461
3545911 37 18333449833538876277
4073 2 17968663829625338722
4214541 1 18409449189446939929
5104073 3 18410574036701615635
542803 24 14129057010947201405
59755656 215 18260547784342917855
59755656 520 17530962497552453523
633830 44 17822849895984133763
77779 3 18408886273615867161
9709674 26 18191026904968525195
9996256 80 18412825811547615847

> <PUBCHEM_SHAPE_MULTIPOLES>
372.07
14.82
1.67
0.65
6.56
0.13
0
0.13
0.09
-0.76
-0.05
0.16
0.02
0.65

> <PUBCHEM_SHAPE_SELFOVERLAP>
815.386

> <PUBCHEM_SHAPE_VOLUME>
202.3

> <PUBCHEM_COORDINATE_TYPE>
2
5
10

$$$$
