24993189
  -OEChem-10052115143D

 61 65  0     0  0  0  0  0  0999 V2000
   -3.9472    3.6424    0.5546 O   0  0  0  0  0  0  0  0  0  0  0  0
    6.3666   -1.4454    0.1189 O   0  0  0  0  0  0  0  0  0  0  0  0
   -2.9997   -1.7717   -0.2290 N   0  0  0  0  0  0  0  0  0  0  0  0
   -2.7751   -4.5817   -0.6901 N   0  0  0  0  0  0  0  0  0  0  0  0
    1.9908   -0.8213    0.7335 N   0  0  0  0  0  0  0  0  0  0  0  0
    2.9295   -1.7664    0.9432 N   0  0  0  0  0  0  0  0  0  0  0  0
    0.4668    1.5621   -0.1628 N   0  0  0  0  0  0  0  0  0  0  0  0
   -1.4836    2.8156   -0.5159 N   0  0  0  0  0  0  0  0  0  0  0  0
    0.5824    3.8506   -0.9285 N   0  0  0  0  0  0  0  0  0  0  0  0
    5.2769   -3.2233    1.0730 N   0  0  0  0  0  0  0  0  0  0  0  0
   -2.7161   -2.2744   -1.5768 C   0  0  0  0  0  0  0  0  0  0  0  0
   -3.6565   -2.7213    0.6781 C   0  0  0  0  0  0  0  0  0  0  0  0
   -2.0108   -3.6312   -1.5069 C   0  0  0  0  0  0  0  0  0  0  0  0
   -2.9200   -4.0629    0.6757 C   0  0  0  0  0  0  0  0  0  0  0  0
   -3.2329   -0.4060   -0.0324 C   0  0  0  0  0  0  0  0  0  0  0  0
    4.7074    1.0948   -0.6854 C   0  0  0  0  0  0  0  0  0  0  0  0
    3.8306    0.0861   -0.0333 C   0  0  0  0  0  0  0  0  0  0  0  0
    4.1279    2.5282   -0.5419 C   0  0  0  0  0  0  0  0  0  0  0  0
    2.4847    0.3079    0.1569 C   0  0  0  0  0  0  0  0  0  0  0  0
    2.6170    2.6059   -0.5998 C   0  0  0  0  0  0  0  0  0  0  0  0
    1.8120    1.5344   -0.2056 C   0  0  0  0  0  0  0  0  0  0  0  0
   -2.1192   -5.8887   -0.6753 C   0  0  0  0  0  0  0  0  0  0  0  0
    4.0497   -1.2070    0.4691 C   0  0  0  0  0  0  0  0  0  0  0  0
   -2.2500    0.5251   -0.3680 C   0  0  0  0  0  0  0  0  0  0  0  0
   -4.4492    0.0242    0.4980 C   0  0  0  0  0  0  0  0  0  0  0  0
   -2.4834    1.8865   -0.1733 C   0  0  0  0  0  0  0  0  0  0  0  0
    1.9300    3.7544   -0.9420 C   0  0  0  0  0  0  0  0  0  0  0  0
   -0.0737    2.7381   -0.5359 C   0  0  0  0  0  0  0  0  0  0  0  0
   -3.6999    2.3166    0.3570 C   0  0  0  0  0  0  0  0  0  0  0  0
   -4.6826    1.3854    0.6928 C   0  0  0  0  0  0  0  0  0  0  0  0
    0.6251   -1.1105    1.1050 C   0  0  0  0  0  0  0  0  0  0  0  0
    5.2859   -1.9336    0.5259 C   0  0  0  0  0  0  0  0  0  0  0  0
   -3.5835    4.1871    1.8212 C   0  0  0  0  0  0  0  0  0  0  0  0
   -2.0760   -1.5842   -2.1380 H   0  0  0  0  0  0  0  0  0  0  0  0
   -3.6580   -2.3661   -2.1329 H   0  0  0  0  0  0  0  0  0  0  0  0
   -4.6978   -2.8768    0.3679 H   0  0  0  0  0  0  0  0  0  0  0  0
   -3.6583   -2.3425    1.7080 H   0  0  0  0  0  0  0  0  0  0  0  0
   -1.9055   -4.0151   -2.5289 H   0  0  0  0  0  0  0  0  0  0  0  0
   -0.9984   -3.4979   -1.1020 H   0  0  0  0  0  0  0  0  0  0  0  0
   -1.9367   -3.9421    1.1504 H   0  0  0  0  0  0  0  0  0  0  0  0
   -3.4931   -4.7701    1.2875 H   0  0  0  0  0  0  0  0  0  0  0  0
    5.7218    1.0750   -0.2743 H   0  0  0  0  0  0  0  0  0  0  0  0
    4.7812    0.8458   -1.7517 H   0  0  0  0  0  0  0  0  0  0  0  0
    4.5700    3.1664   -1.3162 H   0  0  0  0  0  0  0  0  0  0  0  0
    4.4358    2.9358    0.4301 H   0  0  0  0  0  0  0  0  0  0  0  0
   -2.7085   -6.6078   -0.0954 H   0  0  0  0  0  0  0  0  0  0  0  0
   -1.1115   -5.8432   -0.2464 H   0  0  0  0  0  0  0  0  0  0  0  0
   -2.0436   -6.2921   -1.6912 H   0  0  0  0  0  0  0  0  0  0  0  0
   -1.3347    0.1719   -0.8289 H   0  0  0  0  0  0  0  0  0  0  0  0
   -5.2458   -0.6677    0.7554 H   0  0  0  0  0  0  0  0  0  0  0  0
    2.4510    4.6586   -1.2388 H   0  0  0  0  0  0  0  0  0  0  0  0
   -1.8243    3.7596   -0.6716 H   0  0  0  0  0  0  0  0  0  0  0  0
   -5.6342    1.7139    1.1023 H   0  0  0  0  0  0  0  0  0  0  0  0
    0.0703   -1.3376    0.1939 H   0  0  0  0  0  0  0  0  0  0  0  0
    0.6098   -1.9824    1.7655 H   0  0  0  0  0  0  0  0  0  0  0  0
    0.2047   -0.2576    1.6410 H   0  0  0  0  0  0  0  0  0  0  0  0
    4.4261   -3.6537    1.4210 H   0  0  0  0  0  0  0  0  0  0  0  0
    6.1302   -3.7683    1.1376 H   0  0  0  0  0  0  0  0  0  0  0  0
   -3.8224    5.2541    1.8164 H   0  0  0  0  0  0  0  0  0  0  0  0
   -2.5102    4.0702    2.0006 H   0  0  0  0  0  0  0  0  0  0  0  0
   -4.1524    3.7050    2.6225 H   0  0  0  0  0  0  0  0  0  0  0  0
  1 29  1  0  0  0  0
  1 33  1  0  0  0  0
  2 32  2  0  0  0  0
  3 11  1  0  0  0  0
  3 12  1  0  0  0  0
  3 15  1  0  0  0  0
  4 13  1  0  0  0  0
  4 14  1  0  0  0  0
  4 22  1  0  0  0  0
  5  6  1  0  0  0  0
  5 19  1  0  0  0  0
  5 31  1  0  0  0  0
  6 23  2  0  0  0  0
  7 21  2  0  0  0  0
  7 28  1  0  0  0  0
  8 26  1  0  0  0  0
  8 28  1  0  0  0  0
  8 52  1  0  0  0  0
  9 27  1  0  0  0  0
  9 28  2  0  0  0  0
 10 32  1  0  0  0  0
 10 57  1  0  0  0  0
 10 58  1  0  0  0  0
 11 13  1  0  0  0  0
 11 34  1  0  0  0  0
 11 35  1  0  0  0  0
 12 14  1  0  0  0  0
 12 36  1  0  0  0  0
 12 37  1  0  0  0  0
 13 38  1  0  0  0  0
 13 39  1  0  0  0  0
 14 40  1  0  0  0  0
 14 41  1  0  0  0  0
 15 24  2  0  0  0  0
 15 25  1  0  0  0  0
 16 17  1  0  0  0  0
 16 18  1  0  0  0  0
 16 42  1  0  0  0  0
 16 43  1  0  0  0  0
 17 19  2  0  0  0  0
 17 23  1  0  0  0  0
 18 20  1  0  0  0  0
 18 44  1  0  0  0  0
 18 45  1  0  0  0  0
 19 21  1  0  0  0  0
 20 21  1  0  0  0  0
 20 27  2  0  0  0  0
 22 46  1  0  0  0  0
 22 47  1  0  0  0  0
 22 48  1  0  0  0  0
 23 32  1  0  0  0  0
 24 26  1  0  0  0  0
 24 49  1  0  0  0  0
 25 30  2  0  0  0  0
 25 50  1  0  0  0  0
 26 29  2  0  0  0  0
 27 51  1  0  0  0  0
 29 30  1  0  0  0  0
 30 53  1  0  0  0  0
 31 54  1  0  0  0  0
 31 55  1  0  0  0  0
 31 56  1  0  0  0  0
 33 59  1  0  0  0  0
 33 60  1  0  0  0  0
 33 61  1  0  0  0  0
M  END
> <PUBCHEM_COMPOUND_CID>
24993189

> <PUBCHEM_CONFORMER_RMSD>
1

> <PUBCHEM_CONFORMER_DIVERSEORDER>
1
39
13
40
25
11
19
24
7
20
6
37
3
27
26
10
21
23
29
36
9
8
30
42
12
28
34
35
17
2
43
33
38
16
5
18
14
44
4
41
22
15
31
32

> <PUBCHEM_MMFF94_PARTIAL_CHARGES>
40
1 -0.36
10 -0.8
11 0.37
12 0.37
13 0.27
14 0.27
15 0.1
16 0.18
17 -0.18
18 0.14
19 -0.2
2 -0.57
20 -0.14
21 0.36
22 0.27
23 0.2
24 -0.15
25 -0.15
26 0.1
27 0.16
28 0.72
29 0.08
3 -0.84
30 -0.15
31 0.26
32 0.72
33 0.28
4 -0.81
49 0.15
5 0.31
50 0.15
51 0.15
52 0.4
53 0.15
57 0.37
58 0.37
6 -0.71
7 -0.62
8 -0.6
9 -0.62

> <PUBCHEM_EFFECTIVE_ROTOR_COUNT>
6.6

> <PUBCHEM_PHARMACOPHORE_FEATURES>
14
1 1 acceptor
1 10 donor
1 2 acceptor
1 3 cation
1 4 cation
1 6 acceptor
1 7 acceptor
1 8 donor
4 7 8 9 28 cation
5 5 6 17 19 23 rings
6 15 24 25 26 29 30 rings
6 16 17 18 19 20 21 rings
6 3 4 11 12 13 14 rings
6 7 9 20 21 27 28 rings

> <PUBCHEM_HEAVY_ATOM_COUNT>
33

> <PUBCHEM_ATOM_DEF_STEREO_COUNT>
0

> <PUBCHEM_ATOM_UDEF_STEREO_COUNT>
0

> <PUBCHEM_BOND_DEF_STEREO_COUNT>
0

> <PUBCHEM_BOND_UDEF_STEREO_COUNT>
0

> <PUBCHEM_ISOTOPIC_ATOM_COUNT>
0

> <PUBCHEM_COMPONENT_COUNT>
1

> <PUBCHEM_CACTVS_TAUTO_COUNT>
6

> <PUBCHEM_CONFORMER_ID>
017D5DA500000001

> <PUBCHEM_MMFF94_ENERGY>
116.0533

> <PUBCHEM_FEATURE_SELFOVERLAP>
71.16

> <PUBCHEM_SHAPE_FINGERPRINT>
10290309 65 17616529554404938364
10462674 125 15547652634058901174
10622 236 18198324329525339023
10940486 97 18409732859072804900
1100329 8 18335702685303453872
11014199 57 18266733782362756459
11552529 35 18340207521955291165
11578080 2 17845357994796363360
12107183 9 18121507860115620745
12788726 201 18201715189653006117
14117953 113 18194397780307818933
14363568 33 15602023973562462624
14904385 45 17976258268403650371
15064986 96 17834688089274181825
15250474 111 18337106890595730996
15297060 5 17843403973212353633
15320294 125 17680421152977746434
15320467 1 18336826364559652298
16110190 28 18337955576175943264
16628084 112 18337385033379784535
17492 89 18264209290917345283
19311894 1 18335975376887934650
19319366 153 17459762406060878834
20764821 26 17036141848735400594
20775438 99 17403121292621470327
21133410 171 17476025505965415766
21133410 221 15238301158918185923
21133410 38 15098477042661266970
229767 44 18267303127611515931
23379529 103 18340493266588495062
3246872 21 17762619890344911958
3383291 50 18412820271045325715
3737641 26 17833278888517752559
3882209 13 17835762620618231186
4017518 198 17914889834104648559
44880168 125 16842790362543412839
4573279 73 18261961860050550300
4616759 239 18131055031886404120
463206 1 18334580135602873392

> <PUBCHEM_SHAPE_MULTIPOLES>
627.54
11.49
7.45
1.18
9.77
4.28
-0.01
4.42
-1.94
-6.58
0.51
-0.45
0.11
-3.77

> <PUBCHEM_SHAPE_SELFOVERLAP>
1369.693

> <PUBCHEM_SHAPE_VOLUME>
339.8

> <PUBCHEM_COORDINATE_TYPE>
2
5
10

$$$$
