49830350
  -OEChem-10052115193D

 54 58  0     0  0  0  0  0  0999 V2000
    3.9971    1.8136    0.1082 S   0  0  0  0  0  0  0  0  0  0  0  0
  -10.9021   -0.2141    0.8397 F   0  0  0  0  0  0  0  0  0  0  0  0
   -4.6436    0.2853   -1.2084 O   0  0  0  0  0  0  0  0  0  0  0  0
    3.5549   -2.6430    0.0282 N   0  0  0  0  0  0  0  0  0  0  0  0
    1.2232   -2.3727    0.3084 N   0  0  0  0  0  0  0  0  0  0  0  0
   -3.8467    0.2560    0.9947 N   0  0  0  0  0  0  0  0  0  0  0  0
    8.5062    0.3846    0.8015 N   0  0  0  0  0  0  0  0  0  0  0  0
   -6.1183    0.1182    0.5989 N   0  0  0  0  0  0  0  0  0  0  0  0
    2.6827   -0.4108    0.1981 C   0  0  0  0  0  0  0  0  0  0  0  0
    1.7286    0.6512    0.3431 C   0  0  0  0  0  0  0  0  0  0  0  0
    3.9798    0.0907    0.0591 C   0  0  0  0  0  0  0  0  0  0  0  0
    5.0773   -0.7645   -0.0967 C   0  0  0  0  0  0  0  0  0  0  0  0
    0.2994    0.5506    0.5100 C   0  0  0  0  0  0  0  0  0  0  0  0
    2.5058   -1.8034    0.1775 C   0  0  0  0  0  0  0  0  0  0  0  0
    2.3067    1.8981    0.3115 C   0  0  0  0  0  0  0  0  0  0  0  0
    6.4274   -0.2769   -0.2406 C   0  0  0  0  0  0  0  0  0  0  0  0
    4.7887   -2.1178   -0.1025 C   0  0  0  0  0  0  0  0  0  0  0  0
   -0.5342    0.5378   -0.6083 C   0  0  0  0  0  0  0  0  0  0  0  0
   -0.2490    0.4655    1.7897 C   0  0  0  0  0  0  0  0  0  0  0  0
   -2.4645    0.3550    0.8329 C   0  0  0  0  0  0  0  0  0  0  0  0
   -1.9162    0.4400   -0.4469 C   0  0  0  0  0  0  0  0  0  0  0  0
   -1.6309    0.3677    1.9512 C   0  0  0  0  0  0  0  0  0  0  0  0
    6.9596    0.0003   -1.4950 C   0  0  0  0  0  0  0  0  0  0  0  0
    7.2345   -0.0697    0.8664 C   0  0  0  0  0  0  0  0  0  0  0  0
    8.2642    0.4693   -1.6024 C   0  0  0  0  0  0  0  0  0  0  0  0
    8.9891    0.6429   -0.4345 C   0  0  0  0  0  0  0  0  0  0  0  0
   -4.8535    0.2258   -0.0011 C   0  0  0  0  0  0  0  0  0  0  0  0
   10.3919    1.1463   -0.5124 C   0  0  0  0  0  0  0  0  0  0  0  0
   -7.3811    0.0572   -0.0363 C   0  0  0  0  0  0  0  0  0  0  0  0
   -8.5418   -0.0504    0.7298 C   0  0  0  0  0  0  0  0  0  0  0  0
   -7.4657    0.1033   -1.4279 C   0  0  0  0  0  0  0  0  0  0  0  0
   -9.7870   -0.1119    0.1044 C   0  0  0  0  0  0  0  0  0  0  0  0
   -8.7109    0.0417   -2.0532 C   0  0  0  0  0  0  0  0  0  0  0  0
   -9.8716   -0.0660   -1.2871 C   0  0  0  0  0  0  0  0  0  0  0  0
    1.8247    2.8630    0.3975 H   0  0  0  0  0  0  0  0  0  0  0  0
    5.5760   -2.8585   -0.2176 H   0  0  0  0  0  0  0  0  0  0  0  0
   -0.1214    0.6021   -1.6124 H   0  0  0  0  0  0  0  0  0  0  0  0
    0.3870    0.4727    2.6718 H   0  0  0  0  0  0  0  0  0  0  0  0
   -2.4924    0.4361   -1.3610 H   0  0  0  0  0  0  0  0  0  0  0  0
   -2.0445    0.3015    2.9543 H   0  0  0  0  0  0  0  0  0  0  0  0
    6.3708   -0.1438   -2.3976 H   0  0  0  0  0  0  0  0  0  0  0  0
    6.8796   -0.2665    1.8740 H   0  0  0  0  0  0  0  0  0  0  0  0
    1.1507   -3.3818    0.2856 H   0  0  0  0  0  0  0  0  0  0  0  0
    0.3854   -1.8286    0.4221 H   0  0  0  0  0  0  0  0  0  0  0  0
    8.6902    0.6893   -2.5754 H   0  0  0  0  0  0  0  0  0  0  0  0
   -4.1709    0.1978    1.9570 H   0  0  0  0  0  0  0  0  0  0  0  0
   11.0105    0.4603   -1.0998 H   0  0  0  0  0  0  0  0  0  0  0  0
   10.8356    1.2307    0.4852 H   0  0  0  0  0  0  0  0  0  0  0  0
   10.4156    2.1370   -0.9771 H   0  0  0  0  0  0  0  0  0  0  0  0
   -6.1397    0.0785    1.6147 H   0  0  0  0  0  0  0  0  0  0  0  0
   -8.4903   -0.0873    1.8149 H   0  0  0  0  0  0  0  0  0  0  0  0
   -6.6156    0.1859   -2.0898 H   0  0  0  0  0  0  0  0  0  0  0  0
   -8.7784    0.0775   -3.1367 H   0  0  0  0  0  0  0  0  0  0  0  0
  -10.8412   -0.1138   -1.7738 H   0  0  0  0  0  0  0  0  0  0  0  0
  1 11  1  0  0  0  0
  1 15  1  0  0  0  0
  2 32  1  0  0  0  0
  3 27  2  0  0  0  0
  4 14  2  0  0  0  0
  4 17  1  0  0  0  0
  5 14  1  0  0  0  0
  5 43  1  0  0  0  0
  5 44  1  0  0  0  0
  6 20  1  0  0  0  0
  6 27  1  0  0  0  0
  6 46  1  0  0  0  0
  7 24  1  0  0  0  0
  7 26  2  0  0  0  0
  8 27  1  0  0  0  0
  8 29  1  0  0  0  0
  8 50  1  0  0  0  0
  9 10  1  0  0  0  0
  9 11  2  0  0  0  0
  9 14  1  0  0  0  0
 10 13  1  0  0  0  0
 10 15  2  0  0  0  0
 11 12  1  0  0  0  0
 12 16  1  0  0  0  0
 12 17  2  0  0  0  0
 13 18  2  0  0  0  0
 13 19  1  0  0  0  0
 15 35  1  0  0  0  0
 16 23  1  0  0  0  0
 16 24  2  0  0  0  0
 17 36  1  0  0  0  0
 18 21  1  0  0  0  0
 18 37  1  0  0  0  0
 19 22  2  0  0  0  0
 19 38  1  0  0  0  0
 20 21  2  0  0  0  0
 20 22  1  0  0  0  0
 21 39  1  0  0  0  0
 22 40  1  0  0  0  0
 23 25  2  0  0  0  0
 23 41  1  0  0  0  0
 24 42  1  0  0  0  0
 25 26  1  0  0  0  0
 25 45  1  0  0  0  0
 26 28  1  0  0  0  0
 28 47  1  0  0  0  0
 28 48  1  0  0  0  0
 28 49  1  0  0  0  0
 29 30  2  0  0  0  0
 29 31  1  0  0  0  0
 30 32  1  0  0  0  0
 30 51  1  0  0  0  0
 31 33  2  0  0  0  0
 31 52  1  0  0  0  0
 32 34  2  0  0  0  0
 33 34  1  0  0  0  0
 33 53  1  0  0  0  0
 34 54  1  0  0  0  0
M  END
> <PUBCHEM_COMPOUND_CID>
49830350

> <PUBCHEM_CONFORMER_RMSD>
0.8

> <PUBCHEM_CONFORMER_DIVERSEORDER>
1
41
32
11
45
33
34
7
23
30
40
17
42
12
16
19
44
14
21
25
39
35
15
9
18
5
43
20
10
29
8
26
24
6
37
38
31
22
13
27
36
3
4
28
2

> <PUBCHEM_MMFF94_PARTIAL_CHARGES>
48
1 -0.08
10 -0.05
11 0.04
13 0.05
14 0.41
15 -0.11
17 0.16
18 -0.15
19 -0.15
2 -0.19
20 0.12
21 -0.15
22 -0.15
23 -0.15
24 0.16
25 -0.15
26 0.17
27 0.69
28 0.14
29 0.12
3 -0.57
30 -0.15
31 -0.15
32 0.19
33 -0.15
34 -0.15
35 0.15
36 0.15
37 0.15
38 0.15
39 0.15
4 -0.62
40 0.15
41 0.15
42 0.15
43 0.4
44 0.4
45 0.15
46 0.37
5 -0.9
50 0.37
51 0.15
52 0.15
53 0.15
54 0.15
6 -0.55
7 -0.62
8 -0.55

> <PUBCHEM_EFFECTIVE_ROTOR_COUNT>
6

> <PUBCHEM_PHARMACOPHORE_FEATURES>
11
1 3 acceptor
1 5 donor
1 6 donor
1 7 acceptor
1 8 donor
3 4 5 14 cation
5 1 9 10 11 15 rings
6 13 18 19 20 21 22 rings
6 29 30 31 32 33 34 rings
6 4 9 11 12 14 17 rings
6 7 16 23 24 25 26 rings

> <PUBCHEM_HEAVY_ATOM_COUNT>
34

> <PUBCHEM_ATOM_DEF_STEREO_COUNT>
0

> <PUBCHEM_ATOM_UDEF_STEREO_COUNT>
0

> <PUBCHEM_BOND_DEF_STEREO_COUNT>
0

> <PUBCHEM_BOND_UDEF_STEREO_COUNT>
0

> <PUBCHEM_ISOTOPIC_ATOM_COUNT>
0

> <PUBCHEM_COMPONENT_COUNT>
1

> <PUBCHEM_CACTVS_TAUTO_COUNT>
6

> <PUBCHEM_CONFORMER_ID>
02F859CE00000001

> <PUBCHEM_MMFF94_ENERGY>
113.1673

> <PUBCHEM_FEATURE_SELFOVERLAP>
55.936

> <PUBCHEM_SHAPE_FINGERPRINT>
10076449 9 18343018887567918549
10162869 55 18410855481666477253
10299344 5 17917991673114057919
10533779 47 10880001284799043261
11135609 127 16660656206232017692
11409948 35 15574982924988063538
11443803 9 14923943453438380225
11607047 74 16271349955185226320
12013929 94 16415194607475993687
12089408 11 17917996040141022651
12144603 126 17632580444427824121
12236239 1 17632582604880750536
12522641 24 17131825500203450056
12539745 222 13254807819654899483
12664476 115 17676202477317519197
12741549 16 17894623756626647444
12838862 33 18408879655762230914
13617811 41 18408606959926240828
14118638 360 18338516335421587953
14251764 46 18410293614071168793
14344974 52 17022906791681668837
15061470 23 15864066577211760621
15065858 18 17385438809063439043
15183329 4 18411975850699850115
15840311 113 16702296893551656520
16728433 110 17917708033326572913
1818759 1 16917350342488838111
18365409 1 17631727292219632262
19841028 212 17274831190172571910
20105231 36 15195570091787938636
20771845 171 17894639120156791478
21267235 1 15985104110862265001
21362267 2 17822845506882051732
21591340 7 13406796636102902161
232437 2 15913330195240628685
23522609 53 17559978644228422857
249057 3 18411136969855014077
3092352 35 16702027462380213700
335352 9 18342459261918742612
335507 130 18259703407000051877
395649 100 14779555621571505345
45377200 153 15984813878885452375
5028188 123 17894909638945782119
54039377 194 16702582740651891465
57303763 39 14332830669117694052
5937810 71 17459182998816367333
59520757 100 17969226797365849586
6081469 158 17530680996336037676
9663363 56 18334293185455710776

> <PUBCHEM_SHAPE_MULTIPOLES>
665.51
37.39
1.52
1.42
46.45
0.78
-0.2
-2.13
-12.05
-2.9
0.18
1.34
-0.13
-0.62

> <PUBCHEM_SHAPE_SELFOVERLAP>
1474.017

> <PUBCHEM_SHAPE_VOLUME>
361.3

> <PUBCHEM_COORDINATE_TYPE>
2
5
10

$$$$
