49830884
  -OEChem-10052120443D

 53 56  0     0  0  0  0  0  0999 V2000
    0.8612   -1.9579    2.6806 Cl  0  0  0  0  0  0  0  0  0  0  0  0
   -0.0396   -4.6233   -1.9074 Cl  0  0  0  0  0  0  0  0  0  0  0  0
   -5.2120    0.5384    0.1234 O   0  0  0  0  0  0  0  0  0  0  0  0
    5.2795    2.6801   -1.5954 O   0  0  0  0  0  0  0  0  0  0  0  0
    6.2187    0.3466    0.1341 O   0  0  0  0  0  0  0  0  0  0  0  0
   -3.4679   -0.8984   -0.4216 O   0  0  0  0  0  0  0  0  0  0  0  0
   -3.0914    1.3090    0.0184 N   0  0  0  0  0  0  0  0  0  0  0  0
    2.2918    2.5773   -0.3993 N   0  0  0  0  0  0  0  0  0  0  0  0
    3.3356    0.0022    1.5063 N   0  0  0  0  0  0  0  0  0  0  0  0
   -3.6364    2.5058    0.3540 N   0  0  0  0  0  0  0  0  0  0  0  0
   -6.1570   -0.5296    0.0099 C   0  0  0  0  0  0  0  0  0  0  0  0
    3.3760    1.8647   -0.1660 C   0  0  0  0  0  0  0  0  0  0  0  0
   -1.7144    1.3858   -0.1434 C   0  0  0  0  0  0  0  0  0  0  0  0
    3.7937    0.8268    0.6031 C   0  0  0  0  0  0  0  0  0  0  0  0
   -1.3781    2.7153    0.1071 C   0  0  0  0  0  0  0  0  0  0  0  0
    0.9389    2.1814   -0.3123 C   0  0  0  0  0  0  0  0  0  0  0  0
   -0.0359    3.1258    0.0235 C   0  0  0  0  0  0  0  0  0  0  0  0
   -5.7839   -1.6177    1.0157 C   0  0  0  0  0  0  0  0  0  0  0  0
   -7.5377    0.0423    0.3243 C   0  0  0  0  0  0  0  0  0  0  0  0
   -6.1116   -1.0695   -1.4188 C   0  0  0  0  0  0  0  0  0  0  0  0
    4.6914    2.0135   -0.7847 C   0  0  0  0  0  0  0  0  0  0  0  0
    5.1457    0.8847    0.0519 C   0  0  0  0  0  0  0  0  0  0  0  0
   -0.7417    0.4323   -0.4809 C   0  0  0  0  0  0  0  0  0  0  0  0
    0.5893    0.8562   -0.5602 C   0  0  0  0  0  0  0  0  0  0  0  0
    3.6802   -1.4033    1.5509 C   0  0  0  0  0  0  0  0  0  0  0  0
   -3.9212    0.1934   -0.1210 C   0  0  0  0  0  0  0  0  0  0  0  0
   -2.6013    3.3408    0.4045 C   0  0  0  0  0  0  0  0  0  0  0  0
    2.7274   -2.2066    0.7098 C   0  0  0  0  0  0  0  0  0  0  0  0
    1.4355   -2.5012    1.1460 C   0  0  0  0  0  0  0  0  0  0  0  0
    3.1631   -2.6591   -0.5357 C   0  0  0  0  0  0  0  0  0  0  0  0
    0.5796   -3.2483    0.3366 C   0  0  0  0  0  0  0  0  0  0  0  0
    2.3074   -3.4065   -1.3448 C   0  0  0  0  0  0  0  0  0  0  0  0
    1.0155   -3.7011   -0.9086 C   0  0  0  0  0  0  0  0  0  0  0  0
    2.3774    3.4978   -0.8271 H   0  0  0  0  0  0  0  0  0  0  0  0
    0.2340    4.1601    0.2185 H   0  0  0  0  0  0  0  0  0  0  0  0
   -6.6151   -2.3210    1.1451 H   0  0  0  0  0  0  0  0  0  0  0  0
   -5.5553   -1.1838    1.9961 H   0  0  0  0  0  0  0  0  0  0  0  0
   -4.9236   -2.2260    0.7249 H   0  0  0  0  0  0  0  0  0  0  0  0
   -8.3202   -0.7205    0.2570 H   0  0  0  0  0  0  0  0  0  0  0  0
   -7.5592    0.4732    1.3319 H   0  0  0  0  0  0  0  0  0  0  0  0
   -7.7870    0.8566   -0.3658 H   0  0  0  0  0  0  0  0  0  0  0  0
   -6.9799   -1.7098   -1.6146 H   0  0  0  0  0  0  0  0  0  0  0  0
   -5.2337   -1.6808   -1.6427 H   0  0  0  0  0  0  0  0  0  0  0  0
   -6.1265   -0.2504   -2.1472 H   0  0  0  0  0  0  0  0  0  0  0  0
   -0.9965   -0.6011   -0.6862 H   0  0  0  0  0  0  0  0  0  0  0  0
    2.4510    0.2053    1.9692 H   0  0  0  0  0  0  0  0  0  0  0  0
    1.3354    0.1219   -0.8515 H   0  0  0  0  0  0  0  0  0  0  0  0
    4.7170   -1.5760    1.2362 H   0  0  0  0  0  0  0  0  0  0  0  0
    3.6516   -1.7529    2.5899 H   0  0  0  0  0  0  0  0  0  0  0  0
   -2.7820    4.3761    0.6571 H   0  0  0  0  0  0  0  0  0  0  0  0
    4.1654   -2.4355   -0.8917 H   0  0  0  0  0  0  0  0  0  0  0  0
   -0.4289   -3.4777    0.6746 H   0  0  0  0  0  0  0  0  0  0  0  0
    2.6602   -3.7518   -2.3132 H   0  0  0  0  0  0  0  0  0  0  0  0
  1 29  1  0  0  0  0
  2 33  1  0  0  0  0
  3 11  1  0  0  0  0
  3 26  1  0  0  0  0
  4 21  2  0  0  0  0
  5 22  2  0  0  0  0
  6 26  2  0  0  0  0
  7 10  1  0  0  0  0
  7 13  1  0  0  0  0
  7 26  1  0  0  0  0
  8 12  1  0  0  0  0
  8 16  1  0  0  0  0
  8 34  1  0  0  0  0
  9 14  1  0  0  0  0
  9 25  1  0  0  0  0
  9 46  1  0  0  0  0
 10 27  2  0  0  0  0
 11 18  1  0  0  0  0
 11 19  1  0  0  0  0
 11 20  1  0  0  0  0
 12 14  2  0  0  0  0
 12 21  1  0  0  0  0
 13 15  2  0  0  0  0
 13 23  1  0  0  0  0
 14 22  1  0  0  0  0
 15 17  1  0  0  0  0
 15 27  1  0  0  0  0
 16 17  2  0  0  0  0
 16 24  1  0  0  0  0
 17 35  1  0  0  0  0
 18 36  1  0  0  0  0
 18 37  1  0  0  0  0
 18 38  1  0  0  0  0
 19 39  1  0  0  0  0
 19 40  1  0  0  0  0
 19 41  1  0  0  0  0
 20 42  1  0  0  0  0
 20 43  1  0  0  0  0
 20 44  1  0  0  0  0
 21 22  1  0  0  0  0
 23 24  2  0  0  0  0
 23 45  1  0  0  0  0
 24 47  1  0  0  0  0
 25 28  1  0  0  0  0
 25 48  1  0  0  0  0
 25 49  1  0  0  0  0
 27 50  1  0  0  0  0
 28 29  2  0  0  0  0
 28 30  1  0  0  0  0
 29 31  1  0  0  0  0
 30 32  2  0  0  0  0
 30 51  1  0  0  0  0
 31 33  2  0  0  0  0
 31 52  1  0  0  0  0
 32 33  1  0  0  0  0
 32 53  1  0  0  0  0
M  END
> <PUBCHEM_COMPOUND_CID>
49830884

> <PUBCHEM_CONFORMER_RMSD>
1.4

> <PUBCHEM_CONFORMER_DIVERSEORDER>
1
119
100
55
22
3
69
43
16
83
80
90
128
123
35
44
84
49
121
37
27
67
45
118
10
51
47
78
65
134
68
133
114
94
120
113
110
20
36
130
57
101
129
89
102
111
132
41
86
54
70
115
38
88
26
58
32
97
61
92
125
85
5
105
109
91
99
15
79
30
59
117
77
64
12
116
72
40
50
95
46
108
112
122
42
33
103
52
66
127
31
93
17
62
131
107
76
21
39
82
29
81
124
13
126
48
106
96
71
60
74
24
11
63
73
56
104
34
14
25
23
2
18
75
19
28
53
7
87
4
98
9
8
6

> <PUBCHEM_MMFF94_PARTIAL_CHARGES>
38
1 -0.18
10 -0.71
11 0.28
12 0.03
13 -0.15
14 0.03
16 0.1
17 -0.15
2 -0.18
21 0.64
22 0.64
23 -0.15
24 -0.15
25 0.51
26 0.73
27 0.14
28 -0.14
29 0.18
3 -0.43
30 -0.15
31 -0.15
32 -0.15
33 0.18
34 0.4
35 0.15
4 -0.57
45 0.15
46 0.4
47 0.15
5 -0.57
50 0.15
51 0.15
52 0.15
53 0.15
6 -0.57
7 0.56
8 -0.6
9 -0.87

> <PUBCHEM_EFFECTIVE_ROTOR_COUNT>
8

> <PUBCHEM_PHARMACOPHORE_FEATURES>
13
1 10 acceptor
1 4 acceptor
1 5 acceptor
1 6 acceptor
1 8 cation
1 8 donor
1 9 cation
1 9 donor
4 11 18 19 20 hydrophobe
4 12 14 21 22 rings
5 7 10 13 15 27 rings
6 13 15 16 17 23 24 rings
6 28 29 30 31 32 33 rings

> <PUBCHEM_HEAVY_ATOM_COUNT>
33

> <PUBCHEM_ATOM_DEF_STEREO_COUNT>
0

> <PUBCHEM_ATOM_UDEF_STEREO_COUNT>
0

> <PUBCHEM_BOND_DEF_STEREO_COUNT>
0

> <PUBCHEM_BOND_UDEF_STEREO_COUNT>
0

> <PUBCHEM_ISOTOPIC_ATOM_COUNT>
0

> <PUBCHEM_COMPONENT_COUNT>
1

> <PUBCHEM_CACTVS_TAUTO_COUNT>
8

> <PUBCHEM_CONFORMER_ID>
02F85BE400000001

> <PUBCHEM_MMFF94_ENERGY>
97.5266

> <PUBCHEM_FEATURE_SELFOVERLAP>
66.06

> <PUBCHEM_SHAPE_FINGERPRINT>
10258939 38 17603857919197863461
11135609 187 18114743857744236125
11135926 11 18411131451249423989
11421498 54 18060423473705482272
11513181 2 18201719496645673391
11963148 33 18337103570581613227
12107698 1 18263358101482579978
12156800 1 17390830925913620830
13150687 139 18189352311276154076
1361 2 18411419518246786866
13692114 37 18270108153915951874
14840074 17 18201995539200598855
15001296 14 18264762327969722061
15297060 5 17988079006070296642
15721738 202 18271247131786916107
15927050 60 17619350248085685188
17492 89 18267584602561768175
17909252 39 18198919023365662694
18681886 176 18408600367156787984
19301679 30 18337398158836679865
19311894 1 17983569994810520375
19319366 153 18041267868321178386
1979834 28 18343575231333910467
20028762 73 18272088352581624725
21133410 62 18043228297796492639
21133410 90 17489305360682255178
21197605 99 18263368138662732794
21344244 181 18059309707856697758
23559900 14 17982443793944281701
394071 54 18411989027427665915
463206 1 18266453390207817159
59755656 215 18335423482168952119
6287921 2 18199463260431249478
6823239 73 17983013354205974794

> <PUBCHEM_SHAPE_MULTIPOLES>
639.46
13.93
5.4
1.5
18.57
3.11
0.45
-2.36
-0.22
-3.05
-1.85
-0.84
1.41
-1.17

> <PUBCHEM_SHAPE_SELFOVERLAP>
1383.676

> <PUBCHEM_SHAPE_VOLUME>
352.5

> <PUBCHEM_COORDINATE_TYPE>
2
5
10

$$$$
