49830305
  -OEChem-10052120443D

 55 58  0     0  0  0  0  0  0999 V2000
    1.9786   -5.1491   -0.3706 Cl  0  0  0  0  0  0  0  0  0  0  0  0
   -5.2065    0.0557    0.0680 N   0  0  0  0  0  0  0  0  0  0  0  0
   -0.7448   -1.3245    1.0631 N   0  0  0  0  0  0  0  0  0  0  0  0
    1.3549   -0.7913    0.2293 N   0  0  0  0  0  0  0  0  0  0  0  0
    0.6050   -3.0777    0.3618 N   0  0  0  0  0  0  0  0  0  0  0  0
    5.1754    0.7364   -1.6884 N   0  0  0  0  0  0  0  0  0  0  0  0
    5.3373    2.8169   -0.4849 N   0  0  0  0  0  0  0  0  0  0  0  0
   -3.9089    0.5150    0.5626 C   0  0  0  0  0  0  0  0  0  0  0  0
   -1.0640    0.0683    1.3080 C   0  0  0  0  0  0  0  0  0  0  0  0
   -3.5389   -0.2530    1.8353 C   0  0  0  0  0  0  0  0  0  0  0  0
   -2.8330    0.3480   -0.5157 C   0  0  0  0  0  0  0  0  0  0  0  0
   -2.1675    0.1717    2.3638 C   0  0  0  0  0  0  0  0  0  0  0  0
   -1.4529    0.7622   -0.0006 C   0  0  0  0  0  0  0  0  0  0  0  0
   -5.8333    1.0750   -0.7593 C   0  0  0  0  0  0  0  0  0  0  0  0
   -7.2331    0.6599   -1.2436 C   0  0  0  0  0  0  0  0  0  0  0  0
    0.4567   -1.7495    0.5275 C   0  0  0  0  0  0  0  0  0  0  0  0
   -7.8711    1.7057   -2.1617 C   0  0  0  0  0  0  0  0  0  0  0  0
   -8.1435    0.4095   -0.0383 C   0  0  0  0  0  0  0  0  0  0  0  0
    2.5164   -1.2412   -0.2892 C   0  0  0  0  0  0  0  0  0  0  0  0
    3.4857   -0.2351   -0.6152 C   0  0  0  0  0  0  0  0  0  0  0  0
    1.7895   -3.4574   -0.1606 C   0  0  0  0  0  0  0  0  0  0  0  0
    2.7921   -2.5754   -0.5085 C   0  0  0  0  0  0  0  0  0  0  0  0
    3.7208    1.0325   -0.0199 C   0  0  0  0  0  0  0  0  0  0  0  0
    4.3953   -0.3896   -1.6390 C   0  0  0  0  0  0  0  0  0  0  0  0
    4.7800    1.6124   -0.7120 C   0  0  0  0  0  0  0  0  0  0  0  0
    3.1574    1.7692    1.0346 C   0  0  0  0  0  0  0  0  0  0  0  0
    3.6965    3.0239    1.3129 C   0  0  0  0  0  0  0  0  0  0  0  0
    4.7559    3.4816    0.5408 C   0  0  0  0  0  0  0  0  0  0  0  0
   -3.9704    1.5762    0.8417 H   0  0  0  0  0  0  0  0  0  0  0  0
   -0.1821    0.5700    1.7270 H   0  0  0  0  0  0  0  0  0  0  0  0
   -4.2912   -0.0730    2.6136 H   0  0  0  0  0  0  0  0  0  0  0  0
   -3.5430   -1.3334    1.6425 H   0  0  0  0  0  0  0  0  0  0  0  0
   -2.7912   -0.6964   -0.8519 H   0  0  0  0  0  0  0  0  0  0  0  0
   -3.0619    0.9534   -1.3997 H   0  0  0  0  0  0  0  0  0  0  0  0
   -1.9143   -0.4340    3.2425 H   0  0  0  0  0  0  0  0  0  0  0  0
   -2.2328    1.2125    2.7067 H   0  0  0  0  0  0  0  0  0  0  0  0
   -1.4631    1.8464    0.1729 H   0  0  0  0  0  0  0  0  0  0  0  0
   -0.7101    0.5853   -0.7866 H   0  0  0  0  0  0  0  0  0  0  0  0
   -5.1075   -0.8153   -0.4516 H   0  0  0  0  0  0  0  0  0  0  0  0
   -1.4377   -2.0389    1.2532 H   0  0  0  0  0  0  0  0  0  0  0  0
   -5.9239    2.0142   -0.1981 H   0  0  0  0  0  0  0  0  0  0  0  0
   -5.2207    1.2845   -1.6435 H   0  0  0  0  0  0  0  0  0  0  0  0
   -7.1490   -0.2758   -1.8118 H   0  0  0  0  0  0  0  0  0  0  0  0
   -7.2440    1.8784   -3.0425 H   0  0  0  0  0  0  0  0  0  0  0  0
   -8.8545    1.3725   -2.5098 H   0  0  0  0  0  0  0  0  0  0  0  0
   -7.9988    2.6624   -1.6440 H   0  0  0  0  0  0  0  0  0  0  0  0
   -8.2243    1.3014    0.5927 H   0  0  0  0  0  0  0  0  0  0  0  0
   -9.1531    0.1404   -0.3678 H   0  0  0  0  0  0  0  0  0  0  0  0
   -7.7777   -0.4153    0.5816 H   0  0  0  0  0  0  0  0  0  0  0  0
    3.7320   -2.9325   -0.9125 H   0  0  0  0  0  0  0  0  0  0  0  0
    4.5659   -1.1870   -2.3500 H   0  0  0  0  0  0  0  0  0  0  0  0
    5.9258    0.8978   -2.3457 H   0  0  0  0  0  0  0  0  0  0  0  0
    2.3322    1.3870    1.6261 H   0  0  0  0  0  0  0  0  0  0  0  0
    3.2959    3.6300    2.1184 H   0  0  0  0  0  0  0  0  0  0  0  0
    5.1887    4.4576    0.7443 H   0  0  0  0  0  0  0  0  0  0  0  0
  1 21  1  0  0  0  0
  2  8  1  0  0  0  0
  2 14  1  0  0  0  0
  2 39  1  0  0  0  0
  3  9  1  0  0  0  0
  3 16  1  0  0  0  0
  3 40  1  0  0  0  0
  4 16  2  0  0  0  0
  4 19  1  0  0  0  0
  5 16  1  0  0  0  0
  5 21  2  0  0  0  0
  6 24  1  0  0  0  0
  6 25  1  0  0  0  0
  6 52  1  0  0  0  0
  7 25  1  0  0  0  0
  7 28  2  0  0  0  0
  8 10  1  0  0  0  0
  8 11  1  0  0  0  0
  8 29  1  0  0  0  0
  9 12  1  0  0  0  0
  9 13  1  0  0  0  0
  9 30  1  0  0  0  0
 10 12  1  0  0  0  0
 10 31  1  0  0  0  0
 10 32  1  0  0  0  0
 11 13  1  0  0  0  0
 11 33  1  0  0  0  0
 11 34  1  0  0  0  0
 12 35  1  0  0  0  0
 12 36  1  0  0  0  0
 13 37  1  0  0  0  0
 13 38  1  0  0  0  0
 14 15  1  0  0  0  0
 14 41  1  0  0  0  0
 14 42  1  0  0  0  0
 15 17  1  0  0  0  0
 15 18  1  0  0  0  0
 15 43  1  0  0  0  0
 17 44  1  0  0  0  0
 17 45  1  0  0  0  0
 17 46  1  0  0  0  0
 18 47  1  0  0  0  0
 18 48  1  0  0  0  0
 18 49  1  0  0  0  0
 19 20  1  0  0  0  0
 19 22  2  0  0  0  0
 20 23  1  0  0  0  0
 20 24  2  0  0  0  0
 21 22  1  0  0  0  0
 22 50  1  0  0  0  0
 23 25  2  0  0  0  0
 23 26  1  0  0  0  0
 24 51  1  0  0  0  0
 26 27  2  0  0  0  0
 26 53  1  0  0  0  0
 27 28  1  0  0  0  0
 27 54  1  0  0  0  0
 28 55  1  0  0  0  0
M  END
> <PUBCHEM_COMPOUND_CID>
49830305

> <PUBCHEM_CONFORMER_RMSD>
1

> <PUBCHEM_CONFORMER_DIVERSEORDER>
2
130
137
163
146
12
24
126
145
158
77
76
57
142
150
123
118
59
82
36
91
102
89
86
49
37
101
61
39
154
100
134
103
58
110
113
83
147
78
42
108
74
99
148
10
135
72
13
25
28
112
52
105
140
136
84
106
95
23
19
125
151
115
48
139
29
64
152
133
92
51
15
124
96
55
131
20
68
116
129
63
50
143
104
121
160
149
54
46
26
155
87
114
153
127
97
11
132
70
120
22
40
56
141
35
144
88
79
161
128
75
17
27
14
53
45
119
90
81
34
62
159
85
67
1
9
18
38
80
122
94
6
157
138
66
71
41
5
44
65
43
33
156
117
21
60
109
111
107
7
162
73
8
32
4
30
47
98
16
69
31
3
93

> <PUBCHEM_MMFF94_PARTIAL_CHARGES>
28
1 -0.18
14 0.27
16 0.72
19 0.36
2 -0.9
20 -0.05
21 0.49
22 -0.15
24 -0.3
25 0.11
26 -0.15
27 -0.15
28 0.16
3 -0.87
39 0.36
4 -0.62
40 0.4
5 -0.62
50 0.15
51 0.15
52 0.27
53 0.15
54 0.15
55 0.15
6 0.03
7 -0.57
8 0.27
9 0.37

> <PUBCHEM_EFFECTIVE_ROTOR_COUNT>
7.2

> <PUBCHEM_PHARMACOPHORE_FEATURES>
13
1 2 cation
1 2 donor
1 3 donor
1 5 acceptor
1 6 cation
1 6 donor
1 7 acceptor
3 15 17 18 hydrophobe
4 3 4 5 16 cation
5 6 20 23 24 25 rings
6 4 5 16 19 21 22 rings
6 7 23 25 26 27 28 rings
6 8 9 10 11 12 13 rings

> <PUBCHEM_HEAVY_ATOM_COUNT>
28

> <PUBCHEM_ATOM_DEF_STEREO_COUNT>
0

> <PUBCHEM_ATOM_UDEF_STEREO_COUNT>
0

> <PUBCHEM_BOND_DEF_STEREO_COUNT>
0

> <PUBCHEM_BOND_UDEF_STEREO_COUNT>
0

> <PUBCHEM_ISOTOPIC_ATOM_COUNT>
0

> <PUBCHEM_COMPONENT_COUNT>
1

> <PUBCHEM_CACTVS_TAUTO_COUNT>
16

> <PUBCHEM_CONFORMER_ID>
02F859A100000002

> <PUBCHEM_MMFF94_ENERGY>
50.2193

> <PUBCHEM_FEATURE_SELFOVERLAP>
66.084

> <PUBCHEM_SHAPE_FINGERPRINT>
10692045 39 12901817282358364473
10693767 8 17701270127050370446
10883706 89 8285655259895146951
11211813 74 18335693903034726997
11408170 132 18200017436695400277
12440610 7 17894640257806537427
12661589 4 14332258936436167893
12717326 69 9005902437492690713
12730499 353 18410020939445674051
12769317 202 18341621416867841954
1361 2 18410571820878694661
13878862 14 18261944181041779358
14347424 109 8718824289048458999
14528608 73 18341895190741434685
14675020 138 18200294602990848656
14681490 219 18201720648214301737
14848178 96 18270691973310461640
14931854 50 18059871575120020828
15082195 135 18268703910284993129
15183329 4 17703790289642967385
15276724 80 18268431236213756149
15475509 35 13254793499784911647
15950262 2 16372441253144731836
16120349 189 18189902100832289692
20554085 129 16877936149352984017
20567600 254 18408888468702851560
21033648 29 17968097581231920572
21049683 118 18188475999743600946
21968339 14 18338796706808065434
23522609 53 17631748080246304025
23559900 14 17168438055638606890
23845131 108 18336547221892653714
44317340 157 18265892463611507269
59682541 52 18340476756797103429
6327066 14 18263928911679606132
6371009 1 18342459227664727240
70251023 43 18122624946812355475
9555976 147 13190346721842191621

> <PUBCHEM_SHAPE_MULTIPOLES>
548.21
17.84
4.41
1.68
39.48
4.63
0.17
-14.3
-9.65
-9.1
0.04
1.42
-0.57
2.04

> <PUBCHEM_SHAPE_SELFOVERLAP>
1166.348

> <PUBCHEM_SHAPE_VOLUME>
305.7

> <PUBCHEM_COORDINATE_TYPE>
2
5
10

$$$$
