49830430
  -OEChem-10052115193D

 57 61  0     1  0  0  0  0  0999 V2000
   -3.8026   -0.4469   -0.5946 O   0  0  0  0  0  0  0  0  0  0  0  0
    6.0763   -0.4425   -0.2582 O   0  0  0  0  0  0  0  0  0  0  0  0
    4.6719   -2.3417   -0.2893 N   0  0  0  0  0  0  0  0  0  0  0  0
   -7.3245    0.2884   -1.2832 N   0  0  0  0  0  0  0  0  0  0  0  0
    4.5879    2.9808   -0.9068 N   0  0  0  0  0  0  0  0  0  0  0  0
   -2.9006   -3.6589    0.8727 N   0  0  0  0  0  0  0  0  0  0  0  0
   -5.9293    0.6536   -1.0196 C   0  0  1  0  0  0  0  0  0  0  0  0
    2.6201   -1.3339   -0.0388 C   0  0  0  0  0  0  0  0  0  0  0  0
   -5.9196    1.8818   -0.0853 C   0  0  0  0  0  0  0  0  0  0  0  0
    3.2917   -2.5505   -0.1902 C   0  0  0  0  0  0  0  0  0  0  0  0
    3.6553   -0.3057   -0.0450 C   0  0  0  0  0  0  0  0  0  0  0  0
   -5.2164   -0.5656   -0.4222 C   0  0  0  0  0  0  0  0  0  0  0  0
    0.5516   -2.5131    0.0417 C   0  0  0  0  0  0  0  0  0  0  0  0
    1.2436   -1.2976    0.0790 C   0  0  0  0  0  0  0  0  0  0  0  0
   -4.5447    2.4103    0.2452 C   0  0  0  0  0  0  0  0  0  0  0  0
    2.6285   -3.7613   -0.2296 C   0  0  0  0  0  0  0  0  0  0  0  0
    4.9860   -0.9813   -0.2092 C   0  0  0  0  0  0  0  0  0  0  0  0
   -0.8912   -2.5178    0.1617 C   0  0  0  0  0  0  0  0  0  0  0  0
    1.2375   -3.7328   -0.1112 C   0  0  0  0  0  0  0  0  0  0  0  0
    3.5152    1.0163    0.0703 C   0  0  0  0  0  0  0  0  0  0  0  0
   -3.0358   -1.4779   -0.1618 C   0  0  0  0  0  0  0  0  0  0  0  0
   -1.6516   -1.4450   -0.2905 C   0  0  0  0  0  0  0  0  0  0  0  0
    4.6082    2.0059    0.0561 C   0  0  0  0  0  0  0  0  0  0  0  0
   -3.8592    1.9237    1.3583 C   0  0  0  0  0  0  0  0  0  0  0  0
   -3.9601    3.3854   -0.5626 C   0  0  0  0  0  0  0  0  0  0  0  0
   -1.5579   -3.5911    0.7305 C   0  0  0  0  0  0  0  0  0  0  0  0
   -3.6065   -2.5977    0.4217 C   0  0  0  0  0  0  0  0  0  0  0  0
   -2.5889    2.4124    1.6637 C   0  0  0  0  0  0  0  0  0  0  0  0
   -2.6898    3.8741   -0.2574 C   0  0  0  0  0  0  0  0  0  0  0  0
    5.7277    2.2041    0.8337 C   0  0  0  0  0  0  0  0  0  0  0  0
   -2.0042    3.3876    0.8558 C   0  0  0  0  0  0  0  0  0  0  0  0
    5.6772    3.7987   -0.7553 C   0  0  0  0  0  0  0  0  0  0  0  0
    6.4041    3.3383    0.3203 C   0  0  0  0  0  0  0  0  0  0  0  0
   -5.4489    0.9253   -1.9680 H   0  0  0  0  0  0  0  0  0  0  0  0
   -6.5026    2.6955   -0.5393 H   0  0  0  0  0  0  0  0  0  0  0  0
   -6.4419    1.6464    0.8529 H   0  0  0  0  0  0  0  0  0  0  0  0
   -5.4775   -0.6663    0.6394 H   0  0  0  0  0  0  0  0  0  0  0  0
   -5.5518   -1.4579   -0.9685 H   0  0  0  0  0  0  0  0  0  0  0  0
    0.7478   -0.3435    0.2227 H   0  0  0  0  0  0  0  0  0  0  0  0
    5.3444   -3.0908   -0.4042 H   0  0  0  0  0  0  0  0  0  0  0  0
    3.1579   -4.6990   -0.3537 H   0  0  0  0  0  0  0  0  0  0  0  0
    0.7151   -4.6844   -0.1717 H   0  0  0  0  0  0  0  0  0  0  0  0
    2.5155    1.4401    0.1401 H   0  0  0  0  0  0  0  0  0  0  0  0
   -1.2048   -0.5789   -0.7717 H   0  0  0  0  0  0  0  0  0  0  0  0
   -7.3590   -0.4720   -1.9611 H   0  0  0  0  0  0  0  0  0  0  0  0
   -7.8090    1.0751   -1.7140 H   0  0  0  0  0  0  0  0  0  0  0  0
   -4.3040    1.1678    1.9999 H   0  0  0  0  0  0  0  0  0  0  0  0
   -4.4831    3.7705   -1.4338 H   0  0  0  0  0  0  0  0  0  0  0  0
   -1.0453   -4.4573    1.1369 H   0  0  0  0  0  0  0  0  0  0  0  0
   -4.6710   -2.7291    0.5748 H   0  0  0  0  0  0  0  0  0  0  0  0
   -2.0551    2.0334    2.5302 H   0  0  0  0  0  0  0  0  0  0  0  0
   -2.2339    4.6327   -0.8868 H   0  0  0  0  0  0  0  0  0  0  0  0
    3.8808    3.0864   -1.6219 H   0  0  0  0  0  0  0  0  0  0  0  0
    6.0258    1.6055    1.6837 H   0  0  0  0  0  0  0  0  0  0  0  0
   -1.0148    3.7675    1.0931 H   0  0  0  0  0  0  0  0  0  0  0  0
    5.8371    4.6326   -1.4240 H   0  0  0  0  0  0  0  0  0  0  0  0
    7.3199    3.7739    0.6944 H   0  0  0  0  0  0  0  0  0  0  0  0
  1 12  1  0  0  0  0
  1 21  1  0  0  0  0
  2 17  2  0  0  0  0
  3 10  1  0  0  0  0
  3 17  1  0  0  0  0
  3 40  1  0  0  0  0
  4  7  1  0  0  0  0
  4 45  1  0  0  0  0
  4 46  1  0  0  0  0
  5 23  1  0  0  0  0
  5 32  1  0  0  0  0
  5 53  1  0  0  0  0
  6 26  2  0  0  0  0
  6 27  1  0  0  0  0
  7  9  1  0  0  0  0
  7 12  1  0  0  0  0
  7 34  1  0  0  0  0
  8 10  2  0  0  0  0
  8 11  1  0  0  0  0
  8 14  1  0  0  0  0
  9 15  1  0  0  0  0
  9 35  1  0  0  0  0
  9 36  1  0  0  0  0
 10 16  1  0  0  0  0
 11 17  1  0  0  0  0
 11 20  2  3  0  0  0
 12 37  1  0  0  0  0
 12 38  1  0  0  0  0
 13 14  2  0  0  0  0
 13 18  1  0  0  0  0
 13 19  1  0  0  0  0
 14 39  1  0  0  0  0
 15 24  2  0  0  0  0
 15 25  1  0  0  0  0
 16 19  2  0  0  0  0
 16 41  1  0  0  0  0
 18 22  2  0  0  0  0
 18 26  1  0  0  0  0
 19 42  1  0  0  0  0
 20 23  1  0  0  0  0
 20 43  1  0  0  0  0
 21 22  1  0  0  0  0
 21 27  2  0  0  0  0
 22 44  1  0  0  0  0
 23 30  2  0  0  0  0
 24 28  1  0  0  0  0
 24 47  1  0  0  0  0
 25 29  2  0  0  0  0
 25 48  1  0  0  0  0
 26 49  1  0  0  0  0
 27 50  1  0  0  0  0
 28 31  2  0  0  0  0
 28 51  1  0  0  0  0
 29 31  1  0  0  0  0
 29 52  1  0  0  0  0
 30 33  1  0  0  0  0
 30 54  1  0  0  0  0
 31 55  1  0  0  0  0
 32 33  2  0  0  0  0
 32 56  1  0  0  0  0
 33 57  1  0  0  0  0
M  END
> <PUBCHEM_COMPOUND_CID>
49830430

> <PUBCHEM_CONFORMER_RMSD>
1

> <PUBCHEM_CONFORMER_DIVERSEORDER>
2
207
70
140
272
18
122
251
101
259
105
48
187
11
121
173
132
119
289
80
3
184
40
41
15
98
5
65
274
249
168
16
118
120
201
288
36
252
34
158
285
230
284
183
75
88
228
37
205
86
130
279
64
149
49
63
172
180
117
112
163
211
72
255
291
97
204
126
210
182
23
56
209
175
60
22
69
258
76
185
256
171
25
177
109
50
156
215
223
221
150
66
91
242
73
282
278
114
196
45
233
244
246
262
77
33
58
190
199
84
10
102
153
52
13
179
181
148
93
273
195
212
189
123
263
7
26
266
275
134
203
254
14
235
276
241
167
216
151
286
19
225
238
43
159
157
253
17
219
268
135
141
160
39
234
54
4
224
280
8
218
170
68
29
245
138
92
53
31
124
12
174
57
232
79
107
188
82
260
113
85
6
104
67
47
145
164
191
59
89
51
42
81
261
231
1
62
71
125
247
139
30
142
90
115
27
21
240
265
236
165
24
99
169
46
200
214
78
147
128
144
250
74
178
133
87
83
155
257
35
38
287
136
111
116
267
243
44
269
290
227
94
129
222
143
146
283
161
96
108
197
131
271
100
176
152
32
198
277
193
186
103
239
106
127
95
226
61
166
206
192
154
28
213
9
220
194
55
162
137
217
110
248
270
281
208
202
237
20
264
229

> <PUBCHEM_MMFF94_PARTIAL_CHARGES>
50
1 -0.36
10 0.12
11 -0.01
12 0.28
14 -0.15
15 -0.14
16 -0.15
17 0.62
19 -0.15
2 -0.57
20 -0.11
21 0.08
22 -0.15
23 -0.2
24 -0.15
25 -0.15
26 0.16
27 0.16
28 -0.15
29 -0.15
3 -0.55
30 -0.15
31 -0.15
32 -0.3
33 -0.15
39 0.15
4 -0.99
40 0.37
41 0.15
42 0.15
43 0.15
44 0.15
45 0.36
46 0.36
47 0.15
48 0.15
49 0.15
5 0.03
50 0.15
51 0.15
52 0.15
53 0.27
54 0.15
55 0.15
56 0.15
57 0.15
6 -0.62
7 0.27
8 0.03
9 0.14

> <PUBCHEM_EFFECTIVE_ROTOR_COUNT>
7.2

> <PUBCHEM_PHARMACOPHORE_FEATURES>
13
1 1 acceptor
1 2 acceptor
1 3 donor
1 4 cation
1 4 donor
1 5 cation
1 5 donor
1 6 acceptor
5 3 8 10 11 17 rings
5 5 23 30 32 33 rings
6 15 24 25 28 29 31 rings
6 6 18 21 22 26 27 rings
6 8 10 13 14 16 19 rings

> <PUBCHEM_HEAVY_ATOM_COUNT>
33

> <PUBCHEM_ATOM_DEF_STEREO_COUNT>
0

> <PUBCHEM_ATOM_UDEF_STEREO_COUNT>
1

> <PUBCHEM_BOND_DEF_STEREO_COUNT>
0

> <PUBCHEM_BOND_UDEF_STEREO_COUNT>
1

> <PUBCHEM_ISOTOPIC_ATOM_COUNT>
0

> <PUBCHEM_COMPONENT_COUNT>
1

> <PUBCHEM_CACTVS_TAUTO_COUNT>
10

> <PUBCHEM_CONFORMER_ID>
02F85A1E00000002

> <PUBCHEM_MMFF94_ENERGY>
106.1545

> <PUBCHEM_FEATURE_SELFOVERLAP>
66.062

> <PUBCHEM_SHAPE_FINGERPRINT>
10439779 11 18193832648901466186
10883706 163 18260540117451943396
11101153 10 18341047407648069773
11136131 41 18334849499272891898
11973864 155 17983602739520132216
1361 2 18408604738373231017
13627167 48 18268171853746261612
14394314 77 18341337704599331233
14790565 3 18337955571670018311
14932702 115 18201726197084759864
15001296 14 18335700503433505425
15082195 135 18343021047835929946
15320467 1 18410575084890789748
15347590 135 17897170345282677707
15351339 4 18339069480233691577
16067689 302 18342458167345907551
16112460 7 18407757032778629156
16992787 43 18411699886361605833
19053607 189 18339910606513395832
21133410 127 18187085036120788796
21792964 463 17244710310571067172
22122407 14 18410299081644099882
3493558 16 18409736153043656454
373842 8 18409168830829624837
3918712 181 18336533946359484933
4756261 7 18054826986218425649
50150288 127 16700646457203596921
5104073 3 17967526913270241994
550186 72 18050851322995547775
6036956 94 18335990873509792261
6176135 31 18338795607048940656
6371009 1 18267013968848557674
6608658 132 17984134035432212838

> <PUBCHEM_SHAPE_MULTIPOLES>
647.46
17.03
6.64
0.99
2.82
0.63
0.15
14.4
-3.16
2.37
0.51
-0.84
0.48
0

> <PUBCHEM_SHAPE_SELFOVERLAP>
1437.308

> <PUBCHEM_SHAPE_VOLUME>
345.7

> <PUBCHEM_COORDINATE_TYPE>
2
5
10

$$$$
