24905200
  -OEChem-10052115143D

 39 42  0     0  0  0  0  0  0999 V2000
    2.6490    1.0367    0.0489 N   0  0  0  0  0  0  0  0  0  0  0  0
    1.3636    1.4011   -0.1142 N   0  0  0  0  0  0  0  0  0  0  0  0
    3.9918   -0.9664    0.2655 N   0  0  0  0  0  0  0  0  0  0  0  0
    2.6251   -2.9842    0.1605 N   0  0  0  0  0  0  0  0  0  0  0  0
   -2.6153    0.1600   -1.8089 N   0  0  0  0  0  0  0  0  0  0  0  0
    0.2559   -2.9242   -0.1239 N   0  0  0  0  0  0  0  0  0  0  0  0
    3.6706    2.0525    0.1413 C   0  0  0  0  0  0  0  0  0  0  0  0
    2.8294   -0.3133    0.1089 C   0  0  0  0  0  0  0  0  0  0  0  0
    1.5709   -0.8731   -0.0247 C   0  0  0  0  0  0  0  0  0  0  0  0
    0.7121    0.2337   -0.1583 C   0  0  0  0  0  0  0  0  0  0  0  0
   -0.7108    0.2182   -0.3267 C   0  0  0  0  0  0  0  0  0  0  0  0
    3.4598    2.9537    1.3605 C   0  0  0  0  0  0  0  0  0  0  0  0
    3.7569    2.8826   -1.1418 C   0  0  0  0  0  0  0  0  0  0  0  0
    1.4899   -2.2613    0.0051 C   0  0  0  0  0  0  0  0  0  0  0  0
   -1.5652    0.2441    0.7661 C   0  0  0  0  0  0  0  0  0  0  0  0
   -2.9536    0.2276    0.5759 C   0  0  0  0  0  0  0  0  0  0  0  0
   -1.2818    0.1767   -1.5823 C   0  0  0  0  0  0  0  0  0  0  0  0
   -3.4422    0.1851   -0.7466 C   0  0  0  0  0  0  0  0  0  0  0  0
    3.7888   -2.3016    0.2794 C   0  0  0  0  0  0  0  0  0  0  0  0
   -3.8454    0.2526    1.6616 C   0  0  0  0  0  0  0  0  0  0  0  0
   -4.8214    0.1693   -0.9349 C   0  0  0  0  0  0  0  0  0  0  0  0
   -5.2201    0.2357    1.4442 C   0  0  0  0  0  0  0  0  0  0  0  0
   -5.7082    0.1943    0.1441 C   0  0  0  0  0  0  0  0  0  0  0  0
    4.6312    1.5392    0.2699 H   0  0  0  0  0  0  0  0  0  0  0  0
    2.5313    3.5302    1.2828 H   0  0  0  0  0  0  0  0  0  0  0  0
    4.2879    3.6628    1.4647 H   0  0  0  0  0  0  0  0  0  0  0  0
    3.4065    2.3597    2.2796 H   0  0  0  0  0  0  0  0  0  0  0  0
    2.8399    3.4564   -1.3158 H   0  0  0  0  0  0  0  0  0  0  0  0
    3.9161    2.2378   -2.0131 H   0  0  0  0  0  0  0  0  0  0  0  0
    4.5910    3.5902   -1.0888 H   0  0  0  0  0  0  0  0  0  0  0  0
   -1.1565    0.2764    1.7750 H   0  0  0  0  0  0  0  0  0  0  0  0
   -0.6752    0.1538   -2.4832 H   0  0  0  0  0  0  0  0  0  0  0  0
    4.6779   -2.9107    0.4023 H   0  0  0  0  0  0  0  0  0  0  0  0
   -3.4738    0.2853    2.6834 H   0  0  0  0  0  0  0  0  0  0  0  0
   -0.6063   -2.4127   -0.2400 H   0  0  0  0  0  0  0  0  0  0  0  0
    0.2420   -3.9349   -0.0968 H   0  0  0  0  0  0  0  0  0  0  0  0
   -5.2292    0.1368   -1.9436 H   0  0  0  0  0  0  0  0  0  0  0  0
   -5.9062    0.2551    2.2854 H   0  0  0  0  0  0  0  0  0  0  0  0
   -6.7794    0.1811   -0.0348 H   0  0  0  0  0  0  0  0  0  0  0  0
  1  2  1  0  0  0  0
  1  7  1  0  0  0  0
  1  8  1  0  0  0  0
  2 10  2  0  0  0  0
  3  8  2  0  0  0  0
  3 19  1  0  0  0  0
  4 14  1  0  0  0  0
  4 19  2  0  0  0  0
  5 17  2  0  0  0  0
  5 18  1  0  0  0  0
  6 14  1  0  0  0  0
  6 35  1  0  0  0  0
  6 36  1  0  0  0  0
  7 12  1  0  0  0  0
  7 13  1  0  0  0  0
  7 24  1  0  0  0  0
  8  9  1  0  0  0  0
  9 10  1  0  0  0  0
  9 14  2  0  0  0  0
 10 11  1  0  0  0  0
 11 15  2  0  0  0  0
 11 17  1  0  0  0  0
 12 25  1  0  0  0  0
 12 26  1  0  0  0  0
 12 27  1  0  0  0  0
 13 28  1  0  0  0  0
 13 29  1  0  0  0  0
 13 30  1  0  0  0  0
 15 16  1  0  0  0  0
 15 31  1  0  0  0  0
 16 18  1  0  0  0  0
 16 20  2  0  0  0  0
 17 32  1  0  0  0  0
 18 21  2  0  0  0  0
 19 33  1  0  0  0  0
 20 22  1  0  0  0  0
 20 34  1  0  0  0  0
 21 23  1  0  0  0  0
 21 37  1  0  0  0  0
 22 23  2  0  0  0  0
 22 38  1  0  0  0  0
 23 39  1  0  0  0  0
M  END
> <PUBCHEM_COMPOUND_CID>
24905200

> <PUBCHEM_CONFORMER_RMSD>
0.6

> <PUBCHEM_CONFORMER_DIVERSEORDER>
1
6
3
4
5
2

> <PUBCHEM_MMFF94_PARTIAL_CHARGES>
28
1 0.31
10 0.23
11 0.05
14 0.41
15 -0.15
17 0.16
18 0.31
19 0.47
2 -0.71
20 -0.15
21 -0.15
22 -0.15
23 -0.15
3 -0.57
31 0.15
32 0.15
33 0.15
34 0.15
35 0.4
36 0.4
37 0.15
38 0.15
39 0.15
4 -0.62
5 -0.62
6 -0.9
7 0.26
8 0.11

> <PUBCHEM_EFFECTIVE_ROTOR_COUNT>
2

> <PUBCHEM_PHARMACOPHORE_FEATURES>
11
1 2 acceptor
1 5 acceptor
1 6 cation
1 6 donor
3 1 3 8 cation
3 3 4 19 cation
3 7 12 13 hydrophobe
5 1 2 8 9 10 rings
6 16 18 20 21 22 23 rings
6 3 4 8 9 14 19 rings
6 5 11 15 16 17 18 rings

> <PUBCHEM_HEAVY_ATOM_COUNT>
23

> <PUBCHEM_ATOM_DEF_STEREO_COUNT>
0

> <PUBCHEM_ATOM_UDEF_STEREO_COUNT>
0

> <PUBCHEM_BOND_DEF_STEREO_COUNT>
0

> <PUBCHEM_BOND_UDEF_STEREO_COUNT>
0

> <PUBCHEM_ISOTOPIC_ATOM_COUNT>
0

> <PUBCHEM_COMPONENT_COUNT>
1

> <PUBCHEM_CACTVS_TAUTO_COUNT>
5

> <PUBCHEM_CONFORMER_ID>
017C05F000000001

> <PUBCHEM_MMFF94_ENERGY>
60.6289

> <PUBCHEM_FEATURE_SELFOVERLAP>
56.131

> <PUBCHEM_SHAPE_FINGERPRINT>
10165383 225 18263373645412270804
10912923 1 17917993889074505169
11582403 64 16234421709787270964
12035758 1 18262783130716823082
12107183 9 17694512446849038409
12236239 1 17704067374292247735
12390115 104 17979080714888872644
12403259 415 17894347761615878949
12616971 3 18060136518761568005
12644460 14 18411136935416128504
12730499 353 18335710484779122248
12895836 83 17608954301974954580
13140716 1 18337945814068629682
13533116 47 18412266125573816595
13583140 156 18271248343563714081
13631057 29 17911511314536093999
13955234 65 18410571786545057474
14341114 328 17917439730977375579
14386348 63 17531535287033096515
14739800 52 16844710045721472584
14790565 3 17829621904138297652
14955137 171 18199756860491163286
15142526 21 17841703307834059824
15238133 3 17060343976853460275
15342168 16 18263365961124837180
15842332 3 17774705541720885223
15961568 22 16371017350831333140
17844677 252 18336550421985719485
1813 80 17914344481001471198
18785283 64 18260550043664117844
19784866 34 18199463449330825848
1979834 28 18041284373490431621
200 152 18341607067397968903
204376 136 18264772227906444493
20600515 1 16009033946913055421
20645477 70 18334007272532454583
20739085 24 18335712619441737020
21033648 29 17895182299526287149
21065201 7 16443344226602212819
22079108 93 18199472254187446705
22122407 14 18129957684964576961
22182313 1 17749657520062748437
2255824 54 18341894069865922278
23557571 272 17022901203623132365
23559900 14 16515687706189893006
31174 14 18334576789680860046
312423 11 18201168650046962153
3178227 256 18335427837830526866
38570 142 18129398153451681564
4340502 62 18340209695345594187
458136 41 18336270136614365692
474 4 18199463436382646456
495365 180 18410008862187327472
5104073 3 18410574024275987371
57527293 21 17241042240093815384
6034566 193 17755588483309854444
621550 34 18113616798337914477
633830 44 18059305326224962981
7495541 125 17822294548423656082
77492 1 17703501134409572223
8272917 22 18412831261291110077
9981440 41 15762147595862485256

> <PUBCHEM_SHAPE_MULTIPOLES>
443.44
10.77
2.88
1.32
10.06
0.63
-0.07
-2.97
1.77
-6.17
0.25
1.2
-0.52
-0.21

> <PUBCHEM_SHAPE_SELFOVERLAP>
993.975

> <PUBCHEM_SHAPE_VOLUME>
231.5

> <PUBCHEM_COORDINATE_TYPE>
2
5
10

$$$$
