24905176
  -OEChem-10052115163D

 38 40  0     0  0  0  0  0  0999 V2000
    0.9999    0.2521   -2.3196 F   0  0  0  0  0  0  0  0  0  0  0  0
    3.6809    0.2078    2.4493 F   0  0  0  0  0  0  0  0  0  0  0  0
    5.0918    0.2267    0.0862 O   0  0  0  0  0  0  0  0  0  0  0  0
   -2.4558    1.0171    0.0524 N   0  0  0  0  0  0  0  0  0  0  0  0
   -1.1637    1.3943    0.0606 N   0  0  0  0  0  0  0  0  0  0  0  0
   -3.7951   -0.9999    0.0297 N   0  0  0  0  0  0  0  0  0  0  0  0
   -2.4059   -3.0050    0.0175 N   0  0  0  0  0  0  0  0  0  0  0  0
   -0.0205   -2.9216    0.0284 N   0  0  0  0  0  0  0  0  0  0  0  0
   -3.4911    2.0232    0.0574 C   0  0  0  0  0  0  0  0  0  0  0  0
   -2.6288   -0.3351    0.0399 C   0  0  0  0  0  0  0  0  0  0  0  0
   -1.3579   -0.8828    0.0399 C   0  0  0  0  0  0  0  0  0  0  0  0
   -0.5003    0.2329    0.0529 C   0  0  0  0  0  0  0  0  0  0  0  0
   -3.4294    2.9007   -1.1953 C   0  0  0  0  0  0  0  0  0  0  0  0
   -3.4386    2.8789    1.3255 C   0  0  0  0  0  0  0  0  0  0  0  0
    0.9409    0.2313    0.0581 C   0  0  0  0  0  0  0  0  0  0  0  0
   -1.2675   -2.2707    0.0282 C   0  0  0  0  0  0  0  0  0  0  0  0
    1.6471    0.2410   -1.1450 C   0  0  0  0  0  0  0  0  0  0  0  0
    1.6296    0.2199    1.2712 C   0  0  0  0  0  0  0  0  0  0  0  0
   -3.5822   -2.3335    0.0189 C   0  0  0  0  0  0  0  0  0  0  0  0
    3.0246    0.2186    1.2809 C   0  0  0  0  0  0  0  0  0  0  0  0
    3.0420    0.2393   -1.1349 C   0  0  0  0  0  0  0  0  0  0  0  0
    3.7308    0.2281    0.0779 C   0  0  0  0  0  0  0  0  0  0  0  0
    5.7489    0.2369   -1.1802 C   0  0  0  0  0  0  0  0  0  0  0  0
   -4.4551    1.5003    0.0494 H   0  0  0  0  0  0  0  0  0  0  0  0
   -2.5037    3.4855   -1.2354 H   0  0  0  0  0  0  0  0  0  0  0  0
   -4.2708    3.6013   -1.2182 H   0  0  0  0  0  0  0  0  0  0  0  0
   -3.4755    2.2883   -2.1027 H   0  0  0  0  0  0  0  0  0  0  0  0
   -2.5133    3.4629    1.3823 H   0  0  0  0  0  0  0  0  0  0  0  0
   -3.4911    2.2508    2.2218 H   0  0  0  0  0  0  0  0  0  0  0  0
   -4.2802    3.5791    1.3544 H   0  0  0  0  0  0  0  0  0  0  0  0
    1.0946    0.2117    2.2178 H   0  0  0  0  0  0  0  0  0  0  0  0
   -4.4735   -2.9516    0.0101 H   0  0  0  0  0  0  0  0  0  0  0  0
    3.5266    0.2470   -2.1051 H   0  0  0  0  0  0  0  0  0  0  0  0
    0.8444   -2.4014    0.0368 H   0  0  0  0  0  0  0  0  0  0  0  0
    0.0001   -3.9326    0.0200 H   0  0  0  0  0  0  0  0  0  0  0  0
    6.8264    0.2341   -0.9852 H   0  0  0  0  0  0  0  0  0  0  0  0
    5.5281    1.1515   -1.7409 H   0  0  0  0  0  0  0  0  0  0  0  0
    5.5262   -0.6675   -1.7565 H   0  0  0  0  0  0  0  0  0  0  0  0
  1 17  1  0  0  0  0
  2 20  1  0  0  0  0
  3 22  1  0  0  0  0
  3 23  1  0  0  0  0
  4  5  1  0  0  0  0
  4  9  1  0  0  0  0
  4 10  1  0  0  0  0
  5 12  2  0  0  0  0
  6 10  2  0  0  0  0
  6 19  1  0  0  0  0
  7 16  1  0  0  0  0
  7 19  2  0  0  0  0
  8 16  1  0  0  0  0
  8 34  1  0  0  0  0
  8 35  1  0  0  0  0
  9 13  1  0  0  0  0
  9 14  1  0  0  0  0
  9 24  1  0  0  0  0
 10 11  1  0  0  0  0
 11 12  1  0  0  0  0
 11 16  2  0  0  0  0
 12 15  1  0  0  0  0
 13 25  1  0  0  0  0
 13 26  1  0  0  0  0
 13 27  1  0  0  0  0
 14 28  1  0  0  0  0
 14 29  1  0  0  0  0
 14 30  1  0  0  0  0
 15 17  1  0  0  0  0
 15 18  2  0  0  0  0
 17 21  2  0  0  0  0
 18 20  1  0  0  0  0
 18 31  1  0  0  0  0
 19 32  1  0  0  0  0
 20 22  2  0  0  0  0
 21 22  1  0  0  0  0
 21 33  1  0  0  0  0
 23 36  1  0  0  0  0
 23 37  1  0  0  0  0
 23 38  1  0  0  0  0
M  END
> <PUBCHEM_COMPOUND_CID>
24905176

> <PUBCHEM_CONFORMER_RMSD>
0.6

> <PUBCHEM_CONFORMER_DIVERSEORDER>
2
8
3
10
11
6
7
13
4
9
5
12
1

> <PUBCHEM_MMFF94_PARTIAL_CHARGES>
25
1 -0.19
10 0.11
12 0.23
15 0.05
16 0.41
17 0.19
18 -0.15
19 0.47
2 -0.19
20 0.19
21 -0.15
22 0.08
23 0.28
3 -0.36
31 0.15
32 0.15
33 0.15
34 0.4
35 0.4
4 0.31
5 -0.71
6 -0.57
7 -0.62
8 -0.9
9 0.26

> <PUBCHEM_EFFECTIVE_ROTOR_COUNT>
3

> <PUBCHEM_PHARMACOPHORE_FEATURES>
10
1 3 acceptor
1 5 acceptor
1 8 cation
1 8 donor
3 4 6 10 cation
3 6 7 19 cation
3 9 13 14 hydrophobe
5 4 5 10 11 12 rings
6 15 17 18 20 21 22 rings
6 6 7 10 11 16 19 rings

> <PUBCHEM_HEAVY_ATOM_COUNT>
23

> <PUBCHEM_ATOM_DEF_STEREO_COUNT>
0

> <PUBCHEM_ATOM_UDEF_STEREO_COUNT>
0

> <PUBCHEM_BOND_DEF_STEREO_COUNT>
0

> <PUBCHEM_BOND_UDEF_STEREO_COUNT>
0

> <PUBCHEM_ISOTOPIC_ATOM_COUNT>
0

> <PUBCHEM_COMPONENT_COUNT>
1

> <PUBCHEM_CACTVS_TAUTO_COUNT>
5

> <PUBCHEM_CONFORMER_ID>
017C05D800000002

> <PUBCHEM_MMFF94_ENERGY>
59.5489

> <PUBCHEM_FEATURE_SELFOVERLAP>
51.025

> <PUBCHEM_SHAPE_FINGERPRINT>
10165383 225 18269005184966304721
10319926 262 18270378569884126032
11582403 64 17054095413270313889
11725454 13 17199909381186575160
12107183 9 18046058255984096242
12236239 1 17676486172338224822
12390115 104 18200044936653110777
12403259 415 17846498153725583104
12500047 106 18412542085543519606
12553582 1 18192428795485108371
12788726 201 18191320470547088787
13140716 1 18122914385185622595
13464514 151 17630332926047933177
13583140 156 17917416636663853202
13878862 14 16968580682511525609
14178342 30 18409442562017068283
14294032 229 18263362509015831077
15042514 8 18265622172439920187
16752209 62 18409160043532278499
16945 1 18410858797987904147
16988056 13 15738510779755897269
19049666 15 17917440778126462787
200 152 16660637505169047406
20510252 161 18343582984087230025
20645477 56 18411989031216237017
20645477 70 14852148638447372288
20691752 17 17386009403979980866
21033648 29 17346308307011955592
21065201 7 18413105074320666194
22112679 90 17967822668685644332
23175994 123 17060068072512707312
23402539 116 18341609369305423679
23419403 2 17056653092940118083
23493267 7 18272934895125838288
23557571 272 18202009827849975453
23559900 14 18342458200993190308
23598291 2 17604138255886174618
2748010 2 18193850236839742879
469060 322 18336846246812020569
5265222 85 18199201744979862982
559249 180 18336263441035118890
57527295 17 17130986451970894101
59755656 215 18343023276881953647
59755656 520 17987529117386313369
602551 16 18412544349202502106
77492 1 17676485072821237898
7808743 9 18337678524841896360
81228 2 18339370776779683571
84936 182 17624409775742906673
9862522 239 17750787758166511645

> <PUBCHEM_SHAPE_MULTIPOLES>
428.01
9.23
2.94
1.44
9.31
0.84
-0.15
-2.91
0.4
-5.61
-0.01
1.37
-0.61
-0.07

> <PUBCHEM_SHAPE_SELFOVERLAP>
938.931

> <PUBCHEM_SHAPE_VOLUME>
233.7

> <PUBCHEM_COORDINATE_TYPE>
2
5
10

$$$$
