49830279
  -OEChem-10062121563D

 41 44  0     0  0  0  0  0  0999 V2000
   -0.9235    4.9275    0.3787 Cl  0  0  0  0  0  0  0  0  0  0  0  0
   -2.5940    0.3131    0.5143 N   0  0  0  0  0  0  0  0  0  0  0  0
   -0.3170    0.5339    0.1192 N   0  0  0  0  0  0  0  0  0  0  0  0
   -1.7245    2.4641    0.4368 N   0  0  0  0  0  0  0  0  0  0  0  0
    4.0609    0.4948   -1.0784 N   0  0  0  0  0  0  0  0  0  0  0  0
    4.6128   -1.6893   -0.2247 N   0  0  0  0  0  0  0  0  0  0  0  0
   -2.5236   -1.1346    0.4487 C   0  0  0  0  0  0  0  0  0  0  0  0
   -3.7180   -1.7528    1.1823 C   0  0  0  0  0  0  0  0  0  0  0  0
   -2.4615   -1.5929   -1.0119 C   0  0  0  0  0  0  0  0  0  0  0  0
   -5.0377   -1.5568    0.4355 C   0  0  0  0  0  0  0  0  0  0  0  0
   -3.7857   -1.3965   -1.7504 C   0  0  0  0  0  0  0  0  0  0  0  0
   -4.9476   -2.0467   -1.0063 C   0  0  0  0  0  0  0  0  0  0  0  0
   -1.4975    1.1395    0.3504 C   0  0  0  0  0  0  0  0  0  0  0  0
    0.7305    1.3696   -0.0379 C   0  0  0  0  0  0  0  0  0  0  0  0
    1.9976    0.7434   -0.2835 C   0  0  0  0  0  0  0  0  0  0  0  0
    2.4864   -0.5223    0.1357 C   0  0  0  0  0  0  0  0  0  0  0  0
    0.6308    2.7445    0.0276 C   0  0  0  0  0  0  0  0  0  0  0  0
    3.7747   -0.6464   -0.3762 C   0  0  0  0  0  0  0  0  0  0  0  0
   -0.6339    3.2407    0.2699 C   0  0  0  0  0  0  0  0  0  0  0  0
    2.9880    1.3465   -1.0282 C   0  0  0  0  0  0  0  0  0  0  0  0
    1.9876   -1.5919    0.8969 C   0  0  0  0  0  0  0  0  0  0  0  0
    2.8144   -2.6979    1.0853 C   0  0  0  0  0  0  0  0  0  0  0  0
    4.0809   -2.6894    0.5162 C   0  0  0  0  0  0  0  0  0  0  0  0
   -1.6209   -1.4776    0.9702 H   0  0  0  0  0  0  0  0  0  0  0  0
   -3.8064   -1.3308    2.1908 H   0  0  0  0  0  0  0  0  0  0  0  0
   -3.5411   -2.8292    1.3040 H   0  0  0  0  0  0  0  0  0  0  0  0
   -2.2086   -2.6611   -1.0318 H   0  0  0  0  0  0  0  0  0  0  0  0
   -1.6654   -1.0780   -1.5613 H   0  0  0  0  0  0  0  0  0  0  0  0
   -5.8343   -2.1004    0.9563 H   0  0  0  0  0  0  0  0  0  0  0  0
   -5.3234   -0.4985    0.4458 H   0  0  0  0  0  0  0  0  0  0  0  0
   -3.9843   -0.3253   -1.8762 H   0  0  0  0  0  0  0  0  0  0  0  0
   -3.7101   -1.8243   -2.7566 H   0  0  0  0  0  0  0  0  0  0  0  0
   -4.8209   -3.1363   -1.0136 H   0  0  0  0  0  0  0  0  0  0  0  0
   -5.8867   -1.8316   -1.5283 H   0  0  0  0  0  0  0  0  0  0  0  0
   -3.4897    0.7664    0.6509 H   0  0  0  0  0  0  0  0  0  0  0  0
    1.4776    3.4109   -0.0857 H   0  0  0  0  0  0  0  0  0  0  0  0
    3.0391    2.2975   -1.5414 H   0  0  0  0  0  0  0  0  0  0  0  0
    4.9295    0.6786   -1.5609 H   0  0  0  0  0  0  0  0  0  0  0  0
    0.9953   -1.5722    1.3351 H   0  0  0  0  0  0  0  0  0  0  0  0
    2.4742   -3.5482    1.6665 H   0  0  0  0  0  0  0  0  0  0  0  0
    4.7389   -3.5435    0.6533 H   0  0  0  0  0  0  0  0  0  0  0  0
  1 19  1  0  0  0  0
  2  7  1  0  0  0  0
  2 13  1  0  0  0  0
  2 35  1  0  0  0  0
  3 13  2  0  0  0  0
  3 14  1  0  0  0  0
  4 13  1  0  0  0  0
  4 19  2  0  0  0  0
  5 18  1  0  0  0  0
  5 20  1  0  0  0  0
  5 38  1  0  0  0  0
  6 18  1  0  0  0  0
  6 23  2  0  0  0  0
  7  8  1  0  0  0  0
  7  9  1  0  0  0  0
  7 24  1  0  0  0  0
  8 10  1  0  0  0  0
  8 25  1  0  0  0  0
  8 26  1  0  0  0  0
  9 11  1  0  0  0  0
  9 27  1  0  0  0  0
  9 28  1  0  0  0  0
 10 12  1  0  0  0  0
 10 29  1  0  0  0  0
 10 30  1  0  0  0  0
 11 12  1  0  0  0  0
 11 31  1  0  0  0  0
 11 32  1  0  0  0  0
 12 33  1  0  0  0  0
 12 34  1  0  0  0  0
 14 15  1  0  0  0  0
 14 17  2  0  0  0  0
 15 16  1  0  0  0  0
 15 20  2  0  0  0  0
 16 18  2  0  0  0  0
 16 21  1  0  0  0  0
 17 19  1  0  0  0  0
 17 36  1  0  0  0  0
 20 37  1  0  0  0  0
 21 22  2  0  0  0  0
 21 39  1  0  0  0  0
 22 23  1  0  0  0  0
 22 40  1  0  0  0  0
 23 41  1  0  0  0  0
M  END
> <PUBCHEM_COMPOUND_CID>
49830279

> <PUBCHEM_CONFORMER_RMSD>
0.8

> <PUBCHEM_CONFORMER_DIVERSEORDER>
1
9
16
15
40
20
38
8
17
39
45
11
24
30
35
41
28
14
18
13
50
5
32
26
29
27
22
34
10
12
44
37
47
43
36
31
25
42
7
3
49
23
4
52
51
21
6
19
46
2
48
33

> <PUBCHEM_MMFF94_PARTIAL_CHARGES>
24
1 -0.18
13 0.72
14 0.36
15 -0.05
17 -0.15
18 0.11
19 0.49
2 -0.87
20 -0.3
21 -0.15
22 -0.15
23 0.16
3 -0.62
35 0.4
36 0.15
37 0.15
38 0.27
39 0.15
4 -0.62
40 0.15
41 0.15
5 0.03
6 -0.57
7 0.37

> <PUBCHEM_EFFECTIVE_ROTOR_COUNT>
4.2

> <PUBCHEM_PHARMACOPHORE_FEATURES>
10
1 2 donor
1 4 acceptor
1 5 cation
1 5 donor
1 6 acceptor
4 2 3 4 13 cation
5 5 15 16 18 20 rings
6 3 4 13 14 17 19 rings
6 6 16 18 21 22 23 rings
6 7 8 9 10 11 12 rings

> <PUBCHEM_HEAVY_ATOM_COUNT>
23

> <PUBCHEM_ATOM_DEF_STEREO_COUNT>
0

> <PUBCHEM_ATOM_UDEF_STEREO_COUNT>
0

> <PUBCHEM_BOND_DEF_STEREO_COUNT>
0

> <PUBCHEM_BOND_UDEF_STEREO_COUNT>
0

> <PUBCHEM_ISOTOPIC_ATOM_COUNT>
0

> <PUBCHEM_COMPONENT_COUNT>
1

> <PUBCHEM_CACTVS_TAUTO_COUNT>
16

> <PUBCHEM_CONFORMER_ID>
02F8598700000001

> <PUBCHEM_MMFF94_ENERGY>
45.8038

> <PUBCHEM_FEATURE_SELFOVERLAP>
50.859

> <PUBCHEM_SHAPE_FINGERPRINT>
10616163 171 18266465291451632506
11578080 2 17917132953631394009
12107183 9 18271259287483172075
12553582 1 18340206387835888051
12788726 201 18193831553373283473
13004483 165 18341887481232894873
13140716 1 18339643330402711697
13533116 47 18050851319602465467
13540713 5 18043824091596174340
13631057 29 18411985733124101524
13757389 114 17762355617234468164
138480 1 15023586269176594353
13911987 19 17754758331030833260
13955234 65 17837214045350439441
14178342 30 18118953703704973314
14251757 17 17095505293616311311
14767858 380 18191041169398856684
14787075 74 18199753720970355216
14866123 147 17977945683728156059
15042514 8 18267873783174453913
15099037 8 18335422305580028056
15537594 2 18269284610926870183
17492 89 18265337214097058882
1813 80 18129954476074782389
19319366 153 18117843424462713742
20028762 73 17476917957546743469
20291156 8 18411419513925322355
20626108 58 17773866679185163279
20645477 70 18114742766890374163
21250096 35 18411416241482080655
21478907 32 18410293575791159001
21634736 98 18262245426233137318
221357 26 18261663857749631439
2255824 54 17981327008195470021
235170 7 16877938382092458063
23598288 3 18267313018842291572
23622692 118 18338232666101704070
23728640 28 17979633433707572497
2871803 45 18333734649641635518
3004659 81 18113051627796918410
3091708 16 8992254156052845329
314173 41 18267592488327653463
4017518 198 17045125399964189478
46194498 28 17024592411563087551
463206 1 18336547238919477083
59025328 239 17554283216344309605
59682541 52 18193251192271719983
7164475 11 18337673018872391548
7471813 234 18410001140057869966
7970288 3 18341611542290765911
79837 15 17693382135668501793

> <PUBCHEM_SHAPE_MULTIPOLES>
450.29
9.42
4.73
1.15
3.12
6.04
0.23
-10.2
1.56
0.22
-1.06
0.59
-0.53
-1.52

> <PUBCHEM_SHAPE_SELFOVERLAP>
979.798

> <PUBCHEM_SHAPE_VOLUME>
245.5

> <PUBCHEM_COORDINATE_TYPE>
2
5
10

$$$$
