24822704
  -OEChem-10052115143D

 50 54  0     0  0  0  0  0  0999 V2000
   -7.6133   -1.5058    1.1270 F   0  0  0  0  0  0  0  0  0  0  0  0
   -5.7893   -2.2727    2.0153 F   0  0  0  0  0  0  0  0  0  0  0  0
   -6.4809   -0.2725    2.5147 F   0  0  0  0  0  0  0  0  0  0  0  0
   -1.4524    0.2485    0.6029 O   0  0  0  0  0  0  0  0  0  0  0  0
    3.3765    0.8010    0.6478 N   0  0  0  0  0  0  0  0  0  0  0  0
    2.9692   -0.2431   -0.1276 N   0  0  0  0  0  0  0  0  0  0  0  0
    4.9332    1.2676    2.4296 N   0  0  0  0  0  0  0  0  0  0  0  0
   -1.6376    1.8179   -1.1379 N   0  0  0  0  0  0  0  0  0  0  0  0
    3.1895   -5.0985   -1.4676 N   0  0  0  0  0  0  0  0  0  0  0  0
    2.9327    2.1340    0.6058 C   0  0  0  0  0  0  0  0  0  0  0  0
    1.8850    2.5734   -0.3332 C   0  0  0  0  0  0  0  0  0  0  0  0
    4.3625    0.3952    1.5525 C   0  0  0  0  0  0  0  0  0  0  0  0
    3.6862   -1.2813    0.2975 C   0  0  0  0  0  0  0  0  0  0  0  0
    4.5651   -0.9484    1.3348 C   0  0  0  0  0  0  0  0  0  0  0  0
    0.6195    1.9879   -0.2901 C   0  0  0  0  0  0  0  0  0  0  0  0
    3.4695    3.0273    1.4540 C   0  0  0  0  0  0  0  0  0  0  0  0
   -0.3719    2.4037   -1.1790 C   0  0  0  0  0  0  0  0  0  0  0  0
    2.1589    3.5746   -1.2648 C   0  0  0  0  0  0  0  0  0  0  0  0
    3.5172   -2.5790   -0.3021 C   0  0  0  0  0  0  0  0  0  0  0  0
    4.5067    2.4909    2.3699 C   0  0  0  0  0  0  0  0  0  0  0  0
   -0.0978    3.4050   -2.1107 C   0  0  0  0  0  0  0  0  0  0  0  0
    1.1677    3.9904   -2.1536 C   0  0  0  0  0  0  0  0  0  0  0  0
   -3.4964    0.3697   -0.5011 C   0  0  0  0  0  0  0  0  0  0  0  0
   -2.0933    0.8082   -0.2802 C   0  0  0  0  0  0  0  0  0  0  0  0
    4.5858   -3.4671   -0.3571 C   0  0  0  0  0  0  0  0  0  0  0  0
    2.2849   -2.9493   -0.8291 C   0  0  0  0  0  0  0  0  0  0  0  0
   -4.2352   -0.1639    0.5549 C   0  0  0  0  0  0  0  0  0  0  0  0
   -5.5518   -0.5753    0.3470 C   0  0  0  0  0  0  0  0  0  0  0  0
   -4.0741    0.4922   -1.7648 C   0  0  0  0  0  0  0  0  0  0  0  0
   -6.1295   -0.4528   -0.9167 C   0  0  0  0  0  0  0  0  0  0  0  0
   -5.3904    0.0810   -1.9726 C   0  0  0  0  0  0  0  0  0  0  0  0
   -6.3422   -1.1464    1.4755 C   0  0  0  0  0  0  0  0  0  0  0  0
    4.3719   -4.7035   -0.9448 C   0  0  0  0  0  0  0  0  0  0  0  0
    2.1741   -4.2088   -1.3960 C   0  0  0  0  0  0  0  0  0  0  0  0
    5.2598   -1.5794    1.8716 H   0  0  0  0  0  0  0  0  0  0  0  0
    0.4614    1.2254    0.4600 H   0  0  0  0  0  0  0  0  0  0  0  0
    3.1992    4.0729    1.5173 H   0  0  0  0  0  0  0  0  0  0  0  0
    3.1405    4.0394   -1.3189 H   0  0  0  0  0  0  0  0  0  0  0  0
    4.9401    3.2328    3.0607 H   0  0  0  0  0  0  0  0  0  0  0  0
   -0.8601    3.7387   -2.8102 H   0  0  0  0  0  0  0  0  0  0  0  0
    1.3814    4.7689   -2.8801 H   0  0  0  0  0  0  0  0  0  0  0  0
   -2.2972    2.2179   -1.7993 H   0  0  0  0  0  0  0  0  0  0  0  0
    5.5699   -3.2247    0.0303 H   0  0  0  0  0  0  0  0  0  0  0  0
    1.4176   -2.2971   -0.8047 H   0  0  0  0  0  0  0  0  0  0  0  0
   -3.7962   -0.2591    1.5453 H   0  0  0  0  0  0  0  0  0  0  0  0
   -3.5261    0.8666   -2.6242 H   0  0  0  0  0  0  0  0  0  0  0  0
   -7.1527   -0.7693   -1.0990 H   0  0  0  0  0  0  0  0  0  0  0  0
   -5.8379    0.1682   -2.9585 H   0  0  0  0  0  0  0  0  0  0  0  0
    5.1735   -5.4314   -1.0149 H   0  0  0  0  0  0  0  0  0  0  0  0
    1.2339   -4.5466   -1.8194 H   0  0  0  0  0  0  0  0  0  0  0  0
  1 32  1  0  0  0  0
  2 32  1  0  0  0  0
  3 32  1  0  0  0  0
  4 24  2  0  0  0  0
  5  6  1  0  0  0  0
  5 10  1  0  0  0  0
  5 12  1  0  0  0  0
  6 13  2  0  0  0  0
  7 12  1  0  0  0  0
  7 20  2  0  0  0  0
  8 17  1  0  0  0  0
  8 24  1  0  0  0  0
  8 42  1  0  0  0  0
  9 33  2  0  0  0  0
  9 34  1  0  0  0  0
 10 11  1  0  0  0  0
 10 16  2  0  0  0  0
 11 15  2  0  0  0  0
 11 18  1  0  0  0  0
 12 14  2  0  0  0  0
 13 14  1  0  0  0  0
 13 19  1  0  0  0  0
 14 35  1  0  0  0  0
 15 17  1  0  0  0  0
 15 36  1  0  0  0  0
 16 20  1  0  0  0  0
 16 37  1  0  0  0  0
 17 21  2  0  0  0  0
 18 22  2  0  0  0  0
 18 38  1  0  0  0  0
 19 25  2  0  0  0  0
 19 26  1  0  0  0  0
 20 39  1  0  0  0  0
 21 22  1  0  0  0  0
 21 40  1  0  0  0  0
 22 41  1  0  0  0  0
 23 24  1  0  0  0  0
 23 27  2  0  0  0  0
 23 29  1  0  0  0  0
 25 33  1  0  0  0  0
 25 43  1  0  0  0  0
 26 34  2  0  0  0  0
 26 44  1  0  0  0  0
 27 28  1  0  0  0  0
 27 45  1  0  0  0  0
 28 30  2  0  0  0  0
 28 32  1  0  0  0  0
 29 31  2  0  0  0  0
 29 46  1  0  0  0  0
 30 31  1  0  0  0  0
 30 47  1  0  0  0  0
 31 48  1  0  0  0  0
 33 49  1  0  0  0  0
 34 50  1  0  0  0  0
M  END
> <PUBCHEM_COMPOUND_CID>
24822704

> <PUBCHEM_CONFORMER_RMSD>
0.8

> <PUBCHEM_CONFORMER_DIVERSEORDER>
1
79
15
124
67
48
99
111
100
32
56
31
128
103
129
104
75
57
45
73
36
53
65
96
125
50
120
16
108
126
116
21
68
35
41
112
87
134
47
127
82
44
74
23
106
26
55
105
110
66
131
5
59
37
101
76
22
115
7
29
118
18
121
19
27
83
94
114
9
98
130
78
90
10
2
64
11
133
51
43
132
113
40
102
77
95
81
91
122
71
25
123
92
80
14
39
84
52
70
85
72
60
119
61
17
109
117
107
3
63
54
34
86
69
20
93
62
28
12
33
58
4
89
30
8
38
42
6
24
49
13
97
46
88

> <PUBCHEM_MMFF94_PARTIAL_CHARGES>
50
1 -0.34
10 -0.06
11 0.03
12 -0.03
13 0.23
14 -0.15
15 -0.15
16 -0.14
17 0.12
18 -0.15
19 0.05
2 -0.34
20 0.38
21 -0.15
22 -0.15
23 0.09
24 0.54
25 -0.15
26 -0.15
27 -0.15
28 -0.14
29 -0.15
3 -0.34
30 -0.15
31 -0.15
32 1.16
33 0.16
34 0.16
35 0.15
36 0.15
37 0.15
38 0.15
39 0.06
4 -0.57
40 0.15
41 0.15
42 0.37
43 0.15
44 0.15
45 0.15
46 0.15
47 0.15
48 0.15
49 0.15
5 0.6
50 0.15
6 -0.71
7 -0.58
8 -0.55
9 -0.62

> <PUBCHEM_EFFECTIVE_ROTOR_COUNT>
6

> <PUBCHEM_PHARMACOPHORE_FEATURES>
10
1 4 acceptor
1 6 acceptor
1 7 acceptor
1 8 donor
1 9 acceptor
5 5 6 12 13 14 rings
6 11 15 17 18 21 22 rings
6 23 27 28 29 30 31 rings
6 5 7 10 12 16 20 rings
6 9 19 25 26 33 34 rings

> <PUBCHEM_HEAVY_ATOM_COUNT>
34

> <PUBCHEM_ATOM_DEF_STEREO_COUNT>
0

> <PUBCHEM_ATOM_UDEF_STEREO_COUNT>
0

> <PUBCHEM_BOND_DEF_STEREO_COUNT>
0

> <PUBCHEM_BOND_UDEF_STEREO_COUNT>
0

> <PUBCHEM_ISOTOPIC_ATOM_COUNT>
0

> <PUBCHEM_COMPONENT_COUNT>
1

> <PUBCHEM_CACTVS_TAUTO_COUNT>
2

> <PUBCHEM_CONFORMER_ID>
017AC3B000000001

> <PUBCHEM_MMFF94_ENERGY>
99.3816

> <PUBCHEM_FEATURE_SELFOVERLAP>
50.876

> <PUBCHEM_SHAPE_FINGERPRINT>
10169797 241 18336820893319839810
10462674 369 15287081413517550393
10864689 126 18042962065695573099
11093857 51 18263658401922636164
12202916 173 18116126970689103450
12623949 98 18411980235312768132
12677640 9 16538189572356885256
14725015 67 18117824513431623802
15297060 5 18057038232681706720
15392192 104 17972899217984133371
15419008 42 18116408394374081317
15420108 30 17688013624681700712
15448158 91 18267574715927595382
15484559 13 16735257035069090884
15510800 12 18261668186295943859
19301679 30 18261112998224418353
1979834 28 18410852209101994328
20775530 9 18124032334759911966
21049683 271 18340780235039393414
21133410 38 17916288610205426575
21344244 181 18270133417757658404
21796203 349 17201907143356304726
2260408 40 18341623607058855737
22864921 267 18339657663705435611
23569914 2 8839639090913452251
23572383 38 18261660524480125349
25222932 49 17459172131503908312
2835820 90 18189043197308531181
3886686 26 17910686362787325929
394071 54 18413387635787108635
4167350 143 17913782876012143291
4408954 64 17271754713909433818
4435113 14 18260267404498055981
4461854 278 18337952423928352642
4573279 150 17977973206306246913
5309563 4 17984411946055494526
613672 6 18188756280566097101
6376802 90 17327155674019691004
6695519 79 17769900727885715144
6700243 42 17096085766999390487
86090 222 18259708878150700603
9980921 177 18124903200342389641

> <PUBCHEM_SHAPE_MULTIPOLES>
647.11
16.08
6.25
2.31
29.91
4.31
0.62
11.43
8.7
-11.46
-3.81
0.8
-0.93
5.07

> <PUBCHEM_SHAPE_SELFOVERLAP>
1450.356

> <PUBCHEM_SHAPE_VOLUME>
341.7

> <PUBCHEM_COORDINATE_TYPE>
2
5
10

$$$$
