49830718
  -OEChem-10062121543D

 44 46  0     1  0  0  0  0  0999 V2000
   -1.3605   -0.0510    0.1321 S   0  0  0  0  0  0  0  0  0  0  0  0
    4.3817    3.1149    0.4350 O   0  0  0  0  0  0  0  0  0  0  0  0
    0.6323   -3.4005    0.1594 O   0  0  0  0  0  0  0  0  0  0  0  0
    1.3447   -1.2015    0.3312 N   0  0  0  0  0  0  0  0  0  0  0  0
   -3.3420   -1.6932   -0.1108 N   0  0  0  0  0  0  0  0  0  0  0  0
   -5.8066    2.7800   -0.1739 N   0  0  0  0  0  0  0  0  0  0  0  0
    2.7649   -1.4961    0.4221 C   0  0  1  0  0  0  0  0  0  0  0  0
    3.6088   -0.4116   -0.1572 C   0  0  0  0  0  0  0  0  0  0  0  0
    3.1108   -1.8246    1.8821 C   0  0  0  0  0  0  0  0  0  0  0  0
    3.6014    0.8596    0.4169 C   0  0  0  0  0  0  0  0  0  0  0  0
    4.4050   -0.6681   -1.2736 C   0  0  0  0  0  0  0  0  0  0  0  0
    0.3944   -2.1965    0.2063 C   0  0  0  0  0  0  0  0  0  0  0  0
   -1.0120   -1.7298    0.0985 C   0  0  0  0  0  0  0  0  0  0  0  0
    4.3901    1.8744   -0.1251 C   0  0  0  0  0  0  0  0  0  0  0  0
   -2.1846   -2.4432   -0.0351 C   0  0  0  0  0  0  0  0  0  0  0  0
    5.1936    0.3466   -1.8157 C   0  0  0  0  0  0  0  0  0  0  0  0
    5.1864    1.6179   -1.2413 C   0  0  0  0  0  0  0  0  0  0  0  0
   -3.0285   -0.4189   -0.0330 C   0  0  0  0  0  0  0  0  0  0  0  0
   -3.9749    0.6704   -0.0803 C   0  0  0  0  0  0  0  0  0  0  0  0
   -2.3054   -3.9142   -0.1046 C   0  0  0  0  0  0  0  0  0  0  0  0
   -3.6240    1.9220    0.4136 C   0  0  0  0  0  0  0  0  0  0  0  0
   -5.2407    0.4724   -0.6209 C   0  0  0  0  0  0  0  0  0  0  0  0
    3.5445    3.3069    1.5743 C   0  0  0  0  0  0  0  0  0  0  0  0
   -4.5674    2.9344    0.3441 C   0  0  0  0  0  0  0  0  0  0  0  0
   -6.1117    1.5497   -0.6441 C   0  0  0  0  0  0  0  0  0  0  0  0
    2.9351   -2.4183   -0.1492 H   0  0  0  0  0  0  0  0  0  0  0  0
    1.0418   -0.2328    0.3831 H   0  0  0  0  0  0  0  0  0  0  0  0
    2.5447   -2.6952    2.2318 H   0  0  0  0  0  0  0  0  0  0  0  0
    4.1772   -2.0516    1.9893 H   0  0  0  0  0  0  0  0  0  0  0  0
    2.8734   -0.9941    2.5563 H   0  0  0  0  0  0  0  0  0  0  0  0
    2.9622    1.0125    1.2796 H   0  0  0  0  0  0  0  0  0  0  0  0
    4.4223   -1.6525   -1.7336 H   0  0  0  0  0  0  0  0  0  0  0  0
    5.8134    0.1472   -2.6850 H   0  0  0  0  0  0  0  0  0  0  0  0
    5.8028    2.4044   -1.6682 H   0  0  0  0  0  0  0  0  0  0  0  0
   -1.9092   -4.3802    0.8031 H   0  0  0  0  0  0  0  0  0  0  0  0
   -3.3526   -4.2184   -0.2041 H   0  0  0  0  0  0  0  0  0  0  0  0
   -1.7615   -4.3083   -0.9689 H   0  0  0  0  0  0  0  0  0  0  0  0
   -2.6711    2.1572    0.8732 H   0  0  0  0  0  0  0  0  0  0  0  0
   -5.5574   -0.4854   -1.0207 H   0  0  0  0  0  0  0  0  0  0  0  0
   -4.3460    3.9276    0.7211 H   0  0  0  0  0  0  0  0  0  0  0  0
   -7.1104    1.4478   -1.0559 H   0  0  0  0  0  0  0  0  0  0  0  0
    2.4869    3.1677    1.3252 H   1  0  0  0  0  0  0  0  0  0  0  0
    3.8599    2.6815    2.4164 H   1  0  0  0  0  0  0  0  0  0  0  0
    3.6629    4.3489    1.8896 H   1  0  0  0  0  0  0  0  0  0  0  0
  1 13  1  0  0  0  0
  1 18  1  0  0  0  0
  2 14  1  0  0  0  0
  2 23  1  0  0  0  0
  3 12  2  0  0  0  0
  4  7  1  0  0  0  0
  4 12  1  0  0  0  0
  4 27  1  0  0  0  0
  5 15  1  0  0  0  0
  5 18  2  0  0  0  0
  6 24  2  0  0  0  0
  6 25  1  0  0  0  0
  7  8  1  0  0  0  0
  7  9  1  0  0  0  0
  7 26  1  0  0  0  0
  8 10  2  0  0  0  0
  8 11  1  0  0  0  0
  9 28  1  0  0  0  0
  9 29  1  0  0  0  0
  9 30  1  0  0  0  0
 10 14  1  0  0  0  0
 10 31  1  0  0  0  0
 11 16  2  0  0  0  0
 11 32  1  0  0  0  0
 12 13  1  0  0  0  0
 13 15  2  0  0  0  0
 14 17  2  0  0  0  0
 15 20  1  0  0  0  0
 16 17  1  0  0  0  0
 16 33  1  0  0  0  0
 17 34  1  0  0  0  0
 18 19  1  0  0  0  0
 19 21  2  0  0  0  0
 19 22  1  0  0  0  0
 20 35  1  0  0  0  0
 20 36  1  0  0  0  0
 20 37  1  0  0  0  0
 21 24  1  0  0  0  0
 21 38  1  0  0  0  0
 22 25  2  0  0  0  0
 22 39  1  0  0  0  0
 23 42  1  0  0  0  0
 23 43  1  0  0  0  0
 23 44  1  0  0  0  0
 24 40  1  0  0  0  0
 25 41  1  0  0  0  0
M  ISO  3  42   2  43   2  44   2
M  END
> <PUBCHEM_COMPOUND_CID>
49830718

> <PUBCHEM_CONFORMER_RMSD>
0.8

> <PUBCHEM_CONFORMER_DIVERSEORDER>
1
40
36
47
55
97
51
81
86
69
5
49
104
2
35
103
44
10
31
23
89
38
88
17
62
60
63
48
28
33
12
99
52
67
25
95
68
32
73
92
98
14
21
100
18
11
29
53
71
83
43
3
34
27
19
9
91
101
50
56
4
54
37
72
93
13
87
20
82
65
64
85
46
30
8
45
77
22
41
57
58
24
96
75
61
76
94
79
6
42
80
15
74
70
26
90
102
66
78
59
39
16
7
84

> <PUBCHEM_MMFF94_PARTIAL_CHARGES>
33
1 -0.08
10 -0.15
11 -0.15
12 0.71
13 -0.05
14 0.08
15 0.05
16 -0.15
17 -0.15
18 0.33
19 0.05
2 -0.36
20 0.18
21 -0.15
22 -0.15
23 0.28
24 0.16
25 0.16
27 0.37
3 -0.57
31 0.15
32 0.15
33 0.15
34 0.15
38 0.15
39 0.15
4 -0.73
40 0.15
41 0.15
5 -0.57
6 -0.62
7 0.44
8 -0.14

> <PUBCHEM_EFFECTIVE_ROTOR_COUNT>
6

> <PUBCHEM_PHARMACOPHORE_FEATURES>
8
1 2 acceptor
1 3 acceptor
1 4 donor
1 5 acceptor
1 6 acceptor
5 1 5 13 15 18 rings
6 6 19 21 22 24 25 rings
6 8 10 11 14 16 17 rings

> <PUBCHEM_HEAVY_ATOM_COUNT>
25

> <PUBCHEM_ATOM_DEF_STEREO_COUNT>
0

> <PUBCHEM_ATOM_UDEF_STEREO_COUNT>
1

> <PUBCHEM_BOND_DEF_STEREO_COUNT>
0

> <PUBCHEM_BOND_UDEF_STEREO_COUNT>
0

> <PUBCHEM_ISOTOPIC_ATOM_COUNT>
3

> <PUBCHEM_COMPONENT_COUNT>
1

> <PUBCHEM_CACTVS_TAUTO_COUNT>
2

> <PUBCHEM_CONFORMER_ID>
02F85B3E00000001

> <PUBCHEM_MMFF94_ENERGY>
67.9629

> <PUBCHEM_FEATURE_SELFOVERLAP>
40.598

> <PUBCHEM_SHAPE_FINGERPRINT>
10498660 4 18340491157363491402
10937287 8 18408322177017577851
11720765 8 17987524715540609718
12107183 9 18190448377744163426
12390115 104 18340782468084530091
12422481 6 16950844696275188759
13878862 14 17824238446163004063
13944108 23 17978796701022189173
13965767 371 18040987419767804686
14251764 75 18336557065778127153
14528608 73 18411980239365278861
14739800 52 18266723844350999672
14790565 3 18267584611827241329
14840074 17 17676778603903479309
14848178 5 10159696858997588059
14848178 96 18410853252573364304
14931854 50 18272385152666961268
15142526 21 18113900446700095467
15198563 99 18054506087457823447
15238133 3 18408598155058025002
15322687 12 18341046341605027009
15342168 16 18263361408976240695
16992828 155 15823525745329875712
17834072 32 18409168796612207223
20567600 9 18339086973545790804
21049683 118 17894898642589964555
21315763 87 10953749914445088140
21362857 166 17631432511349862263
21864079 5 18411131480755278810
22393880 68 18341051921231215488
23559900 14 18271806766321626374
245318 6 18114761359962203997
2747138 104 17971208155799519803
2838139 119 18411975841350312399
312425 54 11819262335452691877
312425 83 17845938545404424646
3472631 163 18410015424791997375
34797466 226 18060704970689473669
38570 142 17823154371033311334
46194498 28 17558286555487491886
5104073 3 17967248697835774203
5252454 2 18187079551219541484
6034566 193 18339096912411324489
633830 44 18341325634944066630
6371009 1 18194663887870373753
7288768 16 17894352193996144643
7808743 9 18408886252093746331

> <PUBCHEM_SHAPE_MULTIPOLES>
491.66
14.63
4.5
1.2
4.88
0.52
0.04
-13.36
-3.87
1.44
1.1
-1.98
-0.25
0.08

> <PUBCHEM_SHAPE_SELFOVERLAP>
1046.516

> <PUBCHEM_SHAPE_VOLUME>
276.3

> <PUBCHEM_COORDINATE_TYPE>
2
5
10

$$$$
