49830353
  -OEChem-10052115183D

 65 69  0     1  0  0  0  0  0999 V2000
   -2.9149    1.1778    1.0123 S   0  0  0  0  0  0  0  0  0  0  0  0
   -9.8792    1.2701    1.2530 O   0  0  0  0  0  0  0  0  0  0  0  0
    5.8446   -0.2364    0.9936 O   0  0  0  0  0  0  0  0  0  0  0  0
   -7.3749   -0.5670    0.2577 N   0  0  0  0  0  0  0  0  0  0  0  0
   -7.0813   -0.5378    1.5689 N   0  0  0  0  0  0  0  0  0  0  0  0
   -2.3065   -2.6173   -1.2877 N   0  0  0  0  0  0  0  0  0  0  0  0
   -0.0112   -2.0846   -1.4748 N   0  0  0  0  0  0  0  0  0  0  0  0
   -9.0263    1.9938   -0.7825 N   0  0  0  0  0  0  0  0  0  0  0  0
    4.9027    0.8418   -0.8612 N   0  0  0  0  0  0  0  0  0  0  0  0
    7.1993    0.6678   -0.6845 N   0  0  0  0  0  0  0  0  0  0  0  0
   -1.5296   -0.5755   -0.2879 C   0  0  0  0  0  0  0  0  0  0  0  0
   -2.8318   -0.3091    0.1444 C   0  0  0  0  0  0  0  0  0  0  0  0
   -3.8843   -1.1897   -0.1325 C   0  0  0  0  0  0  0  0  0  0  0  0
   -5.2222   -0.9342    0.3022 C   0  0  0  0  0  0  0  0  0  0  0  0
   -0.6268    0.4654    0.1127 C   0  0  0  0  0  0  0  0  0  0  0  0
   -8.8058   -0.3484   -0.1993 C   0  0  1  0  0  0  0  0  0  0  0  0
   -6.2963   -0.8010   -0.5436 C   0  0  0  0  0  0  0  0  0  0  0  0
    0.7907    0.5624   -0.1364 C   0  0  0  0  0  0  0  0  0  0  0  0
   -1.3013   -1.7566   -1.0118 C   0  0  0  0  0  0  0  0  0  0  0  0
   -1.2464    1.4687    0.8193 C   0  0  0  0  0  0  0  0  0  0  0  0
   -3.5469   -2.3224   -0.8524 C   0  0  0  0  0  0  0  0  0  0  0  0
   -5.7650   -0.7628    1.5899 C   0  0  0  0  0  0  0  0  0  0  0  0
   -9.7302   -1.4420    0.3415 C   0  0  0  0  0  0  0  0  0  0  0  0
   -9.3048    1.0436    0.1902 C   0  0  0  0  0  0  0  0  0  0  0  0
    1.6977    0.0201    0.7741 C   0  0  0  0  0  0  0  0  0  0  0  0
    1.2544    1.1980   -1.2883 C   0  0  0  0  0  0  0  0  0  0  0  0
    3.5320    0.7492   -0.6189 C   0  0  0  0  0  0  0  0  0  0  0  0
    3.0683    0.1135    0.5329 C   0  0  0  0  0  0  0  0  0  0  0  0
    2.6250    1.2914   -1.5295 C   0  0  0  0  0  0  0  0  0  0  0  0
   -9.3867    3.3876   -0.6562 C   0  0  0  0  0  0  0  0  0  0  0  0
    5.9747    0.3605   -0.0704 C   0  0  0  0  0  0  0  0  0  0  0  0
    8.5035    0.3666   -0.2258 C   0  0  0  0  0  0  0  0  0  0  0  0
   11.0744   -0.2274    0.6797 C   0  0  0  0  0  0  0  0  0  0  0  0
    9.6140    0.7548   -0.9754 C   0  0  0  0  0  0  0  0  0  0  0  0
    8.6784   -0.3188    0.9765 C   0  0  0  0  0  0  0  0  0  0  0  0
   10.8994    0.4578   -0.5227 C   0  0  0  0  0  0  0  0  0  0  0  0
    9.9639   -0.6158    1.4291 C   0  0  0  0  0  0  0  0  0  0  0  0
   12.4492   -0.5442    1.1637 C   0  0  0  0  0  0  0  0  0  0  0  0
   -8.7677   -0.4344   -1.2926 H   0  0  0  0  0  0  0  0  0  0  0  0
   -6.3853   -0.8493   -1.6208 H   0  0  0  0  0  0  0  0  0  0  0  0
   -0.8067    2.3648    1.2369 H   0  0  0  0  0  0  0  0  0  0  0  0
   -4.2948   -3.0670   -1.1130 H   0  0  0  0  0  0  0  0  0  0  0  0
   -5.2619   -0.7952    2.5462 H   0  0  0  0  0  0  0  0  0  0  0  0
   -9.3808   -2.4332    0.0333 H   0  0  0  0  0  0  0  0  0  0  0  0
  -10.7500   -1.3048   -0.0335 H   0  0  0  0  0  0  0  0  0  0  0  0
   -9.7750   -1.4310    1.4362 H   0  0  0  0  0  0  0  0  0  0  0  0
    1.3513   -0.4796    1.6758 H   0  0  0  0  0  0  0  0  0  0  0  0
    0.5607    1.6248   -2.0088 H   0  0  0  0  0  0  0  0  0  0  0  0
    3.7045   -0.3312    1.2846 H   0  0  0  0  0  0  0  0  0  0  0  0
    2.9723    1.7889   -2.4315 H   0  0  0  0  0  0  0  0  0  0  0  0
    0.0990   -2.9478   -1.9912 H   0  0  0  0  0  0  0  0  0  0  0  0
    0.7965   -1.5068   -1.3174 H   0  0  0  0  0  0  0  0  0  0  0  0
   -8.5131    1.7184   -1.6145 H   0  0  0  0  0  0  0  0  0  0  0  0
    5.1633    1.3187   -1.7208 H   0  0  0  0  0  0  0  0  0  0  0  0
  -10.1565    3.5264    0.1066 H   0  0  0  0  0  0  0  0  0  0  0  0
   -8.4898    3.9482   -0.3815 H   0  0  0  0  0  0  0  0  0  0  0  0
   -9.7527    3.7371   -1.6245 H   0  0  0  0  0  0  0  0  0  0  0  0
    7.1538    1.1688   -1.5682 H   0  0  0  0  0  0  0  0  0  0  0  0
    9.4914    1.2897   -1.9137 H   0  0  0  0  0  0  0  0  0  0  0  0
    7.8720   -0.6526    1.6133 H   0  0  0  0  0  0  0  0  0  0  0  0
   11.7568    0.7672   -1.1145 H   0  0  0  0  0  0  0  0  0  0  0  0
   10.0889   -1.1485    2.3682 H   0  0  0  0  0  0  0  0  0  0  0  0
   13.1384   -0.6935    0.3255 H   0  0  0  0  0  0  0  0  0  0  0  0
   12.4579   -1.4672    1.7534 H   0  0  0  0  0  0  0  0  0  0  0  0
   12.8258    0.2734    1.7864 H   0  0  0  0  0  0  0  0  0  0  0  0
  1 12  1  0  0  0  0
  1 20  1  0  0  0  0
  2 24  2  0  0  0  0
  3 31  2  0  0  0  0
  4  5  1  0  0  0  0
  4 16  1  0  0  0  0
  4 17  1  0  0  0  0
  5 22  2  0  0  0  0
  6 19  2  0  0  0  0
  6 21  1  0  0  0  0
  7 19  1  0  0  0  0
  7 51  1  0  0  0  0
  7 52  1  0  0  0  0
  8 24  1  0  0  0  0
  8 30  1  0  0  0  0
  8 53  1  0  0  0  0
  9 27  1  0  0  0  0
  9 31  1  0  0  0  0
  9 54  1  0  0  0  0
 10 31  1  0  0  0  0
 10 32  1  0  0  0  0
 10 58  1  0  0  0  0
 11 12  2  0  0  0  0
 11 15  1  0  0  0  0
 11 19  1  0  0  0  0
 12 13  1  0  0  0  0
 13 14  1  0  0  0  0
 13 21  2  0  0  0  0
 14 17  2  0  0  0  0
 14 22  1  0  0  0  0
 15 18  1  0  0  0  0
 15 20  2  0  0  0  0
 16 23  1  0  0  0  0
 16 24  1  0  0  0  0
 16 39  1  0  0  0  0
 17 40  1  0  0  0  0
 18 25  2  0  0  0  0
 18 26  1  0  0  0  0
 20 41  1  0  0  0  0
 21 42  1  0  0  0  0
 22 43  1  0  0  0  0
 23 44  1  0  0  0  0
 23 45  1  0  0  0  0
 23 46  1  0  0  0  0
 25 28  1  0  0  0  0
 25 47  1  0  0  0  0
 26 29  2  0  0  0  0
 26 48  1  0  0  0  0
 27 28  2  0  0  0  0
 27 29  1  0  0  0  0
 28 49  1  0  0  0  0
 29 50  1  0  0  0  0
 30 55  1  0  0  0  0
 30 56  1  0  0  0  0
 30 57  1  0  0  0  0
 32 34  2  0  0  0  0
 32 35  1  0  0  0  0
 33 36  2  0  0  0  0
 33 37  1  0  0  0  0
 33 38  1  0  0  0  0
 34 36  1  0  0  0  0
 34 59  1  0  0  0  0
 35 37  2  0  0  0  0
 35 60  1  0  0  0  0
 36 61  1  0  0  0  0
 37 62  1  0  0  0  0
 38 63  1  0  0  0  0
 38 64  1  0  0  0  0
 38 65  1  0  0  0  0
M  END
> <PUBCHEM_COMPOUND_CID>
49830353

> <PUBCHEM_CONFORMER_RMSD>
1

> <PUBCHEM_CONFORMER_DIVERSEORDER>
1
38
72
64
87
93
21
78
74
76
23
66
83
30
49
68
89
65
29
42
16
46
82
44
18
55
34
11
26
75
58
94
31
80
56
81
85
77
19
52
37
12
50
8
47
14
57
53
10
90
36
15
20
84
51
62
86
5
39
27
45
73
32
79
33
60
25
22
43
71
92
54
70
67
88
95
41
13
48
6
61
35
63
17
91
3
59
7
9
4
24
28
40
69
2

> <PUBCHEM_MMFF94_PARTIAL_CHARGES>
53
1 -0.08
10 -0.55
12 0.04
13 0.05
14 -0.05
15 -0.05
16 0.32
17 -0.3
18 0.05
19 0.41
2 -0.57
20 -0.11
21 0.16
22 0.14
24 0.57
25 -0.15
26 -0.15
27 0.12
28 -0.15
29 -0.15
3 -0.57
30 0.3
31 0.69
32 0.12
33 -0.14
34 -0.15
35 -0.15
36 -0.15
37 -0.15
38 0.14
4 0.31
40 0.15
41 0.15
42 0.15
43 0.15
47 0.15
48 0.15
49 0.15
5 -0.71
50 0.15
51 0.4
52 0.4
53 0.37
54 0.37
58 0.37
59 0.15
6 -0.62
60 0.15
61 0.15
62 0.15
7 -0.9
8 -0.73
9 -0.55

> <PUBCHEM_EFFECTIVE_ROTOR_COUNT>
9

> <PUBCHEM_PHARMACOPHORE_FEATURES>
13
1 10 donor
1 2 acceptor
1 3 acceptor
1 5 acceptor
1 7 donor
1 8 donor
1 9 donor
3 6 7 19 cation
5 1 11 12 15 20 rings
5 4 5 14 17 22 rings
6 18 25 26 27 28 29 rings
6 32 33 34 35 36 37 rings
6 6 11 12 13 19 21 rings

> <PUBCHEM_HEAVY_ATOM_COUNT>
38

> <PUBCHEM_ATOM_DEF_STEREO_COUNT>
0

> <PUBCHEM_ATOM_UDEF_STEREO_COUNT>
1

> <PUBCHEM_BOND_DEF_STEREO_COUNT>
0

> <PUBCHEM_BOND_UDEF_STEREO_COUNT>
0

> <PUBCHEM_ISOTOPIC_ATOM_COUNT>
0

> <PUBCHEM_COMPONENT_COUNT>
1

> <PUBCHEM_CACTVS_TAUTO_COUNT>
12

> <PUBCHEM_CONFORMER_ID>
02F859D100000001

> <PUBCHEM_MMFF94_ENERGY>
109.5216

> <PUBCHEM_FEATURE_SELFOVERLAP>
66.087

> <PUBCHEM_SHAPE_FINGERPRINT>
10162869 55 12175620685834690568
10299344 5 18408885158084861158
10674148 151 18408884057254422507
11408170 108 18260829255953420698
12082328 90 16732975419639369470
12089408 11 18335985367418805662
12144603 126 18186518804805966866
12664476 115 16774076276755954536
12741549 16 18131068239011734800
12838862 33 17846778498698575118
13947934 56 18337108961150080924
14040221 8 18343872121550152624
14251764 46 18186802491448079298
14344974 52 9007049172364039374
15061470 23 18259983782523630564
15065858 18 16773798112945918502
15274700 256 18272650147221161104
15289351 153 17274823553968041697
15320294 125 18410290342134687478
15347591 1 18050288364804866053
15392192 104 10519990353470725884
16728433 110 17968096461506512076
17686467 74 8142086438150329487
20105231 36 16298105406035498394
20609170 92 18270402673209357949
21792934 111 16774076294210266664
21792961 116 17676199178365410581
21792965 68 17458337500365606685
232437 2 17530682122060554746
24771293 8 17203059512713705985
3092352 35 17967535705985772251
395649 100 14405176292922333069
4017518 198 16773800311616162863
44389302 135 18341888581932388034
4874694 18 16917071070408734494
54039377 194 17458343061498791814
59521270 166 18409446969191564837
6201320 215 18187922825452899181
6673363 416 8142090870250915999
6691757 9 17560810965476509351
9663363 56 17561365080908510721
9953998 17 17060058172950751870

> <PUBCHEM_SHAPE_MULTIPOLES>
739.27
45.15
2.02
1.34
61.97
0.41
0.06
6.84
10.58
-5.91
-0.73
0.41
-0.14
-1.21

> <PUBCHEM_SHAPE_SELFOVERLAP>
1610.824

> <PUBCHEM_SHAPE_VOLUME>
405.8

> <PUBCHEM_COORDINATE_TYPE>
2
5
10

$$$$
