49830819
  -OEChem-10052115183D

 57 60  0     0  0  0  0  0  0999 V2000
   -6.0088   -0.2266    1.2735 S   0  0  0  0  0  0  0  0  0  0  0  0
   -5.0875   -0.8229    2.2325 O   0  0  0  0  0  0  0  0  0  0  0  0
   -7.3074    0.2477    1.7329 O   0  0  0  0  0  0  0  0  0  0  0  0
   -1.1444    3.3107   -0.4438 O   0  0  0  0  0  0  0  0  0  0  0  0
    8.3787   -0.8729   -1.2261 O   0  0  0  0  0  0  0  0  0  0  0  0
   -6.2536   -1.3300   -0.0084 N   0  0  0  0  0  0  0  0  0  0  0  0
   -1.0650    0.9637   -0.3226 N   0  0  0  0  0  0  0  0  0  0  0  0
    4.9384   -0.3540   -1.9105 N   0  0  0  0  0  0  0  0  0  0  0  0
    6.2597   -0.5997   -2.0577 N   0  0  0  0  0  0  0  0  0  0  0  0
   -5.9466   -5.5807   -0.6667 N   0  0  0  0  0  0  0  0  0  0  0  0
   -5.1000   -1.8600   -0.7492 C   0  0  0  0  0  0  0  0  0  0  0  0
   -5.3966   -3.2664   -1.2604 C   0  0  0  0  0  0  0  0  0  0  0  0
   -5.2064    1.1036    0.4765 C   0  0  0  0  0  0  0  0  0  0  0  0
    5.2992   -0.2584    0.5050 C   0  0  0  0  0  0  0  0  0  0  0  0
    4.4662   -0.1771   -0.7150 C   0  0  0  0  0  0  0  0  0  0  0  0
   -3.8146    1.1281    0.3897 C   0  0  0  0  0  0  0  0  0  0  0  0
    3.0234    0.1196   -0.6118 C   0  0  0  0  0  0  0  0  0  0  0  0
   -3.1740    2.1910   -0.2472 C   0  0  0  0  0  0  0  0  0  0  0  0
   -5.6878   -4.2508   -0.1261 C   0  0  0  0  0  0  0  0  0  0  0  0
    6.6603   -0.4947    0.3268 C   0  0  0  0  0  0  0  0  0  0  0  0
   -5.9579    2.1420   -0.0738 C   0  0  0  0  0  0  0  0  0  0  0  0
    0.2980    0.6826   -0.4181 C   0  0  0  0  0  0  0  0  0  0  0  0
   -3.9255    3.2296   -0.7973 C   0  0  0  0  0  0  0  0  0  0  0  0
    2.5801    1.4417   -0.6464 C   0  0  0  0  0  0  0  0  0  0  0  0
    2.1039   -0.9210   -0.4806 C   0  0  0  0  0  0  0  0  0  0  0  0
   -1.6907    2.2176   -0.3399 C   0  0  0  0  0  0  0  0  0  0  0  0
   -5.3173    3.2050   -0.7105 C   0  0  0  0  0  0  0  0  0  0  0  0
    1.2175    1.7233   -0.5495 C   0  0  0  0  0  0  0  0  0  0  0  0
    0.7412   -0.6396   -0.3836 C   0  0  0  0  0  0  0  0  0  0  0  0
    4.7827   -0.1333    1.7990 C   0  0  0  0  0  0  0  0  0  0  0  0
    7.1828   -0.6695   -1.0378 C   0  0  0  0  0  0  0  0  0  0  0  0
    7.5160   -0.5833    1.4295 C   0  0  0  0  0  0  0  0  0  0  0  0
    5.6360   -0.2223    2.9009 C   0  0  0  0  0  0  0  0  0  0  0  0
    6.9998   -0.4430    2.7168 C   0  0  0  0  0  0  0  0  0  0  0  0
   -4.8927   -1.2009   -1.5987 H   0  0  0  0  0  0  0  0  0  0  0  0
   -4.2106   -1.8905   -0.1117 H   0  0  0  0  0  0  0  0  0  0  0  0
   -4.5371   -3.6173   -1.8451 H   0  0  0  0  0  0  0  0  0  0  0  0
   -6.2552   -3.2294   -1.9435 H   0  0  0  0  0  0  0  0  0  0  0  0
   -7.1377   -1.2789   -0.5296 H   0  0  0  0  0  0  0  0  0  0  0  0
   -3.2494    0.3283    0.8576 H   0  0  0  0  0  0  0  0  0  0  0  0
   -6.5588   -3.9309    0.4554 H   0  0  0  0  0  0  0  0  0  0  0  0
   -4.8318   -4.3019    0.5551 H   0  0  0  0  0  0  0  0  0  0  0  0
   -7.0431    2.1403   -0.0251 H   0  0  0  0  0  0  0  0  0  0  0  0
   -3.4468    4.0642   -1.3026 H   0  0  0  0  0  0  0  0  0  0  0  0
    3.2892    2.2594   -0.7485 H   0  0  0  0  0  0  0  0  0  0  0  0
    2.4384   -1.9548   -0.4527 H   0  0  0  0  0  0  0  0  0  0  0  0
   -5.9026    4.0120   -1.1415 H   0  0  0  0  0  0  0  0  0  0  0  0
    0.9540    2.7708   -0.5840 H   0  0  0  0  0  0  0  0  0  0  0  0
    0.0361   -1.4607   -0.2816 H   0  0  0  0  0  0  0  0  0  0  0  0
   -1.6508    0.1348   -0.2800 H   0  0  0  0  0  0  0  0  0  0  0  0
    3.7262    0.0398    1.9796 H   0  0  0  0  0  0  0  0  0  0  0  0
    8.5800   -0.7652    1.3067 H   0  0  0  0  0  0  0  0  0  0  0  0
    5.2350   -0.1190    3.9052 H   0  0  0  0  0  0  0  0  0  0  0  0
    6.5568   -0.7215   -3.0207 H   0  0  0  0  0  0  0  0  0  0  0  0
    7.6595   -0.5118    3.5769 H   0  0  0  0  0  0  0  0  0  0  0  0
   -6.1855   -6.2144    0.0950 H   0  0  0  0  0  0  0  0  0  0  0  0
   -6.7610   -5.5500   -1.2788 H   0  0  0  0  0  0  0  0  0  0  0  0
  1  2  2  0  0  0  0
  1  3  2  0  0  0  0
  1  6  1  0  0  0  0
  1 13  1  0  0  0  0
  4 26  2  0  0  0  0
  5 31  2  0  0  0  0
  6 11  1  0  0  0  0
  6 39  1  0  0  0  0
  7 22  1  0  0  0  0
  7 26  1  0  0  0  0
  7 50  1  0  0  0  0
  8  9  1  0  0  0  0
  8 15  2  0  0  0  0
  9 31  1  0  0  0  0
  9 54  1  0  0  0  0
 10 19  1  0  0  0  0
 10 56  1  0  0  0  0
 10 57  1  0  0  0  0
 11 12  1  0  0  0  0
 11 35  1  0  0  0  0
 11 36  1  0  0  0  0
 12 19  1  0  0  0  0
 12 37  1  0  0  0  0
 12 38  1  0  0  0  0
 13 16  1  0  0  0  0
 13 21  2  0  0  0  0
 14 15  1  0  0  0  0
 14 20  1  0  0  0  0
 14 30  2  0  0  0  0
 15 17  1  0  0  0  0
 16 18  2  0  0  0  0
 16 40  1  0  0  0  0
 17 24  2  0  0  0  0
 17 25  1  0  0  0  0
 18 23  1  0  0  0  0
 18 26  1  0  0  0  0
 19 41  1  0  0  0  0
 19 42  1  0  0  0  0
 20 31  1  0  0  0  0
 20 32  2  0  0  0  0
 21 27  1  0  0  0  0
 21 43  1  0  0  0  0
 22 28  2  0  0  0  0
 22 29  1  0  0  0  0
 23 27  2  0  0  0  0
 23 44  1  0  0  0  0
 24 28  1  0  0  0  0
 24 45  1  0  0  0  0
 25 29  2  0  0  0  0
 25 46  1  0  0  0  0
 27 47  1  0  0  0  0
 28 48  1  0  0  0  0
 29 49  1  0  0  0  0
 30 33  1  0  0  0  0
 30 51  1  0  0  0  0
 32 34  1  0  0  0  0
 32 52  1  0  0  0  0
 33 34  2  0  0  0  0
 33 53  1  0  0  0  0
 34 55  1  0  0  0  0
M  END
> <PUBCHEM_COMPOUND_CID>
49830819

> <PUBCHEM_CONFORMER_RMSD>
1

> <PUBCHEM_CONFORMER_DIVERSEORDER>
1
20
77
18
42
45
63
33
84
64
85
15
38
41
13
75
11
91
10
35
54
71
89
49
48
62
19
73
23
69
57
17
51
29
72
70
43
5
40
34
80
86
28
79
55
16
31
46
32
88
61
53
44
67
30
21
52
8
3
4
14
50
92
47
76
82
9
36
2
68
74
66
6
37
7
65
12
78
26
87
83
39
24
27
58
22
90
59
56
25
81
60

> <PUBCHEM_MMFF94_PARTIAL_CHARGES>
50
1 1.45
10 -0.99
11 0.36
13 -0.01
14 0.09
15 0.28
16 -0.15
17 0.09
18 0.09
19 0.27
2 -0.65
20 0.09
21 -0.15
22 0.12
23 -0.15
24 -0.15
25 -0.15
26 0.54
27 -0.15
28 -0.15
29 -0.15
3 -0.65
30 -0.15
31 0.54
32 -0.15
33 -0.15
34 -0.15
39 0.42
4 -0.57
40 0.15
43 0.15
44 0.15
45 0.15
46 0.15
47 0.15
48 0.15
49 0.15
5 -0.57
50 0.37
51 0.15
52 0.15
53 0.15
54 0.37
55 0.15
56 0.36
57 0.36
6 -0.91
7 -0.55
8 -0.51
9 -0.37

> <PUBCHEM_EFFECTIVE_ROTOR_COUNT>
9

> <PUBCHEM_PHARMACOPHORE_FEATURES>
14
1 10 cation
1 10 donor
1 2 acceptor
1 3 acceptor
1 4 acceptor
1 5 acceptor
1 6 donor
1 7 donor
1 8 acceptor
1 9 donor
6 13 16 18 21 23 27 rings
6 14 20 30 32 33 34 rings
6 17 22 24 25 28 29 rings
6 8 9 14 15 20 31 rings

> <PUBCHEM_HEAVY_ATOM_COUNT>
34

> <PUBCHEM_ATOM_DEF_STEREO_COUNT>
0

> <PUBCHEM_ATOM_UDEF_STEREO_COUNT>
0

> <PUBCHEM_BOND_DEF_STEREO_COUNT>
0

> <PUBCHEM_BOND_UDEF_STEREO_COUNT>
0

> <PUBCHEM_ISOTOPIC_ATOM_COUNT>
0

> <PUBCHEM_COMPONENT_COUNT>
1

> <PUBCHEM_CACTVS_TAUTO_COUNT>
6

> <PUBCHEM_CONFORMER_ID>
02F85BA300000001

> <PUBCHEM_MMFF94_ENERGY>
89.6392

> <PUBCHEM_FEATURE_SELFOVERLAP>
71.092

> <PUBCHEM_SHAPE_FINGERPRINT>
10 15 18411976954048003104
10299344 5 17095249081674139072
11136131 41 17686618352472791993
11607047 403 17336172141138682385
11646440 116 17917990543211313600
11719270 70 18115588124197518490
11963148 33 18334574603685632682
12082328 90 15213307396303889565
12106331 60 18186809071137835267
12236239 1 17313671439241162828
13533116 47 16081656565901291232
13782708 43 18341893034351334888
14344974 204 18200025282614356175
15183329 4 16153429441307197608
15320294 125 18261117379138312951
15419008 47 18059571339773972624
1577012 14 17313109601288619260
16989713 51 18409448103120992519
18608769 82 18341898476565366348
19303781 99 18041844042826985387
19611394 137 18130785659373262848
19841028 212 18120089740004230963
22864921 47 18041268899097459834
23081809 10 17313109614104995004
23522609 53 17025465221816846644
23569914 152 12688414152385068240
2747138 104 18131349675048539112
397830 11 18059846316211235392
45377200 153 18410865335123756022
4616759 239 17988917821925621417
484985 159 18335410302053927647
4918590 53 16773788204034152349
49967989 163 17968393328454171170
5080951 261 18114729453235815253
5937810 71 9943517570362363698
9953998 17 17989489615532949169

> <PUBCHEM_SHAPE_MULTIPOLES>
655.17
25.85
4.14
1.96
17.65
4.38
-1.25
12.52
-5.36
-15.02
1.72
3.59
0.55
-0.68

> <PUBCHEM_SHAPE_SELFOVERLAP>
1410.763

> <PUBCHEM_SHAPE_VOLUME>
359.4

> <PUBCHEM_COORDINATE_TYPE>
2
5
10

$$$$
