6466450
  -OEChem-10052115163D

 29 31  0     0  0  0  0  0  0999 V2000
   -5.7363   -1.5130    0.5921 F   0  0  0  0  0  0  0  0  0  0  0  0
   -0.7367   -1.5821   -0.3336 O   0  0  0  0  0  0  0  0  0  0  0  0
   -0.1767    0.6396    0.0900 N   0  0  0  0  0  0  0  0  0  0  0  0
    5.2977    0.2092    0.1039 N   0  0  0  0  0  0  0  0  0  0  0  0
    5.5227   -1.0934   -0.1352 N   0  0  0  0  0  0  0  0  0  0  0  0
    3.2817   -0.6321   -0.0876 C   0  0  0  0  0  0  0  0  0  0  0  0
    3.9730    0.5516    0.1448 C   0  0  0  0  0  0  0  0  0  0  0  0
    1.2187    0.6012    0.1066 C   0  0  0  0  0  0  0  0  0  0  0  0
    1.8771   -0.6161   -0.1088 C   0  0  0  0  0  0  0  0  0  0  0  0
    3.3361    1.7754    0.3618 C   0  0  0  0  0  0  0  0  0  0  0  0
    1.9376    1.7754    0.3377 C   0  0  0  0  0  0  0  0  0  0  0  0
    4.2940   -1.6020   -0.2510 C   0  0  0  0  0  0  0  0  0  0  0  0
   -2.5027   -0.0393   -0.1197 C   0  0  0  0  0  0  0  0  0  0  0  0
   -1.0799   -0.4207   -0.1230 C   0  0  0  0  0  0  0  0  0  0  0  0
   -3.4560   -0.9777    0.2418 C   0  0  0  0  0  0  0  0  0  0  0  0
   -2.8605    1.2505   -0.4778 C   0  0  0  0  0  0  0  0  0  0  0  0
   -4.8032   -0.6165    0.2452 C   0  0  0  0  0  0  0  0  0  0  0  0
   -4.2077    1.6117   -0.4743 C   0  0  0  0  0  0  0  0  0  0  0  0
   -5.1791    0.6782   -0.1129 C   0  0  0  0  0  0  0  0  0  0  0  0
    1.3955   -1.5625   -0.2934 H   0  0  0  0  0  0  0  0  0  0  0  0
    3.8963    2.6863    0.5411 H   0  0  0  0  0  0  0  0  0  0  0  0
    1.4159    2.7159    0.5036 H   0  0  0  0  0  0  0  0  0  0  0  0
   -0.5600    1.5568    0.3008 H   0  0  0  0  0  0  0  0  0  0  0  0
    4.1855   -2.6589   -0.4499 H   0  0  0  0  0  0  0  0  0  0  0  0
    6.0974    0.8169    0.2309 H   0  0  0  0  0  0  0  0  0  0  0  0
   -3.1797   -1.9887    0.5271 H   0  0  0  0  0  0  0  0  0  0  0  0
   -2.1456    1.9978   -0.8069 H   0  0  0  0  0  0  0  0  0  0  0  0
   -4.5019    2.6167   -0.7625 H   0  0  0  0  0  0  0  0  0  0  0  0
   -6.2282    0.9585   -0.1123 H   0  0  0  0  0  0  0  0  0  0  0  0
  1 17  1  0  0  0  0
  2 14  2  0  0  0  0
  3  8  1  0  0  0  0
  3 14  1  0  0  0  0
  3 23  1  0  0  0  0
  4  5  1  0  0  0  0
  4  7  1  0  0  0  0
  4 25  1  0  0  0  0
  5 12  2  0  0  0  0
  6  7  2  0  0  0  0
  6  9  1  0  0  0  0
  6 12  1  0  0  0  0
  7 10  1  0  0  0  0
  8  9  2  0  0  0  0
  8 11  1  0  0  0  0
  9 20  1  0  0  0  0
 10 11  2  0  0  0  0
 10 21  1  0  0  0  0
 11 22  1  0  0  0  0
 12 24  1  0  0  0  0
 13 14  1  0  0  0  0
 13 15  2  0  0  0  0
 13 16  1  0  0  0  0
 15 17  1  0  0  0  0
 15 26  1  0  0  0  0
 16 18  2  0  0  0  0
 16 27  1  0  0  0  0
 17 19  2  0  0  0  0
 18 19  1  0  0  0  0
 18 28  1  0  0  0  0
 19 29  1  0  0  0  0
M  END
> <PUBCHEM_COMPOUND_CID>
6466450

> <PUBCHEM_CONFORMER_RMSD>
0.6

> <PUBCHEM_CONFORMER_DIVERSEORDER>
2
8
10
12
1
7
13
4
6
9
11
14
3
5

> <PUBCHEM_MMFF94_PARTIAL_CHARGES>
28
1 -0.19
10 -0.15
11 -0.15
12 0.14
13 0.09
14 0.54
15 -0.15
16 -0.15
17 0.19
18 -0.15
19 -0.15
2 -0.57
20 0.15
21 0.15
22 0.15
23 0.37
24 0.15
25 0.27
26 0.15
27 0.15
28 0.15
29 0.15
3 -0.55
4 0.3
5 -0.71
7 -0.15
8 0.12
9 -0.15

> <PUBCHEM_EFFECTIVE_ROTOR_COUNT>
3

> <PUBCHEM_PHARMACOPHORE_FEATURES>
7
1 2 acceptor
1 3 donor
1 4 donor
1 5 acceptor
5 4 5 6 7 12 rings
6 13 15 16 17 18 19 rings
6 6 7 8 9 10 11 rings

> <PUBCHEM_HEAVY_ATOM_COUNT>
19

> <PUBCHEM_ATOM_DEF_STEREO_COUNT>
0

> <PUBCHEM_ATOM_UDEF_STEREO_COUNT>
0

> <PUBCHEM_BOND_DEF_STEREO_COUNT>
0

> <PUBCHEM_BOND_UDEF_STEREO_COUNT>
0

> <PUBCHEM_ISOTOPIC_ATOM_COUNT>
0

> <PUBCHEM_COMPONENT_COUNT>
1

> <PUBCHEM_CACTVS_TAUTO_COUNT>
4

> <PUBCHEM_CONFORMER_ID>
0062AB9200000002

> <PUBCHEM_MMFF94_ENERGY>
50.6415

> <PUBCHEM_FEATURE_SELFOVERLAP>
35.613

> <PUBCHEM_SHAPE_FINGERPRINT>
10366900 7 15863787309632305889
11128504 68 16153436051477858054
11287383 113 18408323302087389168
12107183 9 17615121088325359849
12236239 1 17530965769836971484
12403259 415 18412256246690684305
12507560 40 18410853291328251229
13073987 5 18342176648380189880
13081056 2 18410009957404156449
13167823 11 18410852179031876855
13533116 47 13757806875832965804
13675066 3 18342171193560532193
14341114 176 18410016554368376137
15042514 8 18191029109205068083
15099037 51 18341611495045079574
15196674 1 18410855468797535997
15788980 27 18131628984801919901
17349148 13 17203894054301402176
17834072 33 18341331171019254022
17844677 252 18409174315671842157
1813 80 17022899064545153484
18186145 218 17968085426226403628
18222031 100 16660360419960065471
19433438 28 18335700559431571497
19489759 90 17748543736770207179
200 152 17918272043540498521
20645477 70 18343023268428935094
21033648 29 18342160172928152297
21065198 57 18410574023895905593
21065201 7 17968088725025154737
21267235 1 18342465820418199646
21279426 13 18194683661641094942
21682296 61 18201165334258662159
221357 26 18411976949378372325
23402539 116 17775559832502294421
23559900 14 18410005550583231057
239999 70 18411420601348672238
26918003 58 18272368667806330409
3004659 81 18260551070578442214
351380 180 18411698790126560869
3545911 37 18343021129445427344
4073 2 18113343041190633594
42 15 18408605863722454741
4214541 1 18410011022751205185
465052 167 18272937103124332278
5104073 3 18411697681745619417
5281201 14 18334576853984238820
542803 24 14056717933279383237
59755656 215 18187643575110367991
633830 44 17967808383639936261
7495541 125 18335422382910661748
77779 3 18409448098372395853
90127 26 17967819357308310257
9709674 26 18263927807334661427

> <PUBCHEM_SHAPE_MULTIPOLES>
362.92
13.42
1.78
0.67
2.49
0.21
0
-2.23
-0.42
-0.19
-0.02
0.16
0.03
0.93

> <PUBCHEM_SHAPE_SELFOVERLAP>
808.382

> <PUBCHEM_SHAPE_VOLUME>
193.7

> <PUBCHEM_COORDINATE_TYPE>
2
5
10

$$$$
