49830876
  -OEChem-10062121533D

 41 44  0     0  0  0  0  0  0999 V2000
    5.6242   -0.2058   -0.3821 S   0  0  0  0  0  0  0  0  0  0  0  0
    6.0546    1.1848   -0.3465 O   0  0  0  0  0  0  0  0  0  0  0  0
    6.3930   -1.2190    0.3268 O   0  0  0  0  0  0  0  0  0  0  0  0
   -3.3920    0.1971   -0.1949 N   0  0  0  0  0  0  0  0  0  0  0  0
   -1.1059    0.9015    0.1082 N   0  0  0  0  0  0  0  0  0  0  0  0
    0.9898    1.9023    0.3855 N   0  0  0  0  0  0  0  0  0  0  0  0
   -0.8548    3.3230    0.1449 N   0  0  0  0  0  0  0  0  0  0  0  0
    5.4529   -0.6882   -2.0123 N   0  0  0  0  0  0  0  0  0  0  0  0
   -2.4161    1.1490   -0.0641 C   0  0  0  0  0  0  0  0  0  0  0  0
   -3.0217    2.3972   -0.1414 C   0  0  0  0  0  0  0  0  0  0  0  0
   -3.1940   -1.1846   -0.1733 C   0  0  0  0  0  0  0  0  0  0  0  0
   -4.6092    0.8086   -0.3530 C   0  0  0  0  0  0  0  0  0  0  0  0
   -4.4101    2.1726   -0.3240 C   0  0  0  0  0  0  0  0  0  0  0  0
   -0.4042    2.0493    0.2023 C   0  0  0  0  0  0  0  0  0  0  0  0
    1.8204    0.7728    0.4930 C   0  0  0  0  0  0  0  0  0  0  0  0
   -2.1841    3.5061   -0.0295 C   0  0  0  0  0  0  0  0  0  0  0  0
    3.9678   -0.2844    0.1643 C   0  0  0  0  0  0  0  0  0  0  0  0
    3.1440    0.8361    0.0575 C   0  0  0  0  0  0  0  0  0  0  0  0
   -4.2004   -2.0259    0.3009 C   0  0  0  0  0  0  0  0  0  0  0  0
   -1.9905   -1.7240   -0.6274 C   0  0  0  0  0  0  0  0  0  0  0  0
    1.3205   -0.4112    1.0354 C   0  0  0  0  0  0  0  0  0  0  0  0
    3.4679   -1.4683    0.7065 C   0  0  0  0  0  0  0  0  0  0  0  0
    2.1444   -1.5317    1.1422 C   0  0  0  0  0  0  0  0  0  0  0  0
   -4.0034   -3.4067    0.3212 C   0  0  0  0  0  0  0  0  0  0  0  0
   -1.7933   -3.1046   -0.6072 C   0  0  0  0  0  0  0  0  0  0  0  0
   -2.7998   -3.9460   -0.1329 C   0  0  0  0  0  0  0  0  0  0  0  0
   -5.5263    0.2522   -0.4962 H   0  0  0  0  0  0  0  0  0  0  0  0
   -5.1835    2.9210   -0.4292 H   0  0  0  0  0  0  0  0  0  0  0  0
   -2.5327    4.5302   -0.0736 H   0  0  0  0  0  0  0  0  0  0  0  0
    1.4854    2.7859    0.3141 H   0  0  0  0  0  0  0  0  0  0  0  0
    3.5225    1.7610   -0.3710 H   0  0  0  0  0  0  0  0  0  0  0  0
   -5.1428   -1.6427    0.6827 H   0  0  0  0  0  0  0  0  0  0  0  0
   -1.1994   -1.1263   -1.0671 H   0  0  0  0  0  0  0  0  0  0  0  0
    0.3143   -0.4933    1.4320 H   0  0  0  0  0  0  0  0  0  0  0  0
    4.0901   -2.3544    0.7952 H   0  0  0  0  0  0  0  0  0  0  0  0
    1.7579   -2.4510    1.5728 H   0  0  0  0  0  0  0  0  0  0  0  0
   -4.7851   -4.0620    0.6943 H   0  0  0  0  0  0  0  0  0  0  0  0
   -0.8617   -3.5262   -0.9735 H   0  0  0  0  0  0  0  0  0  0  0  0
   -2.6470   -5.0212   -0.1191 H   0  0  0  0  0  0  0  0  0  0  0  0
    5.8110   -1.6144   -2.2756 H   0  0  0  0  0  0  0  0  0  0  0  0
    5.5804    0.0283   -2.7375 H   0  0  0  0  0  0  0  0  0  0  0  0
  1  2  2  0  0  0  0
  1  3  2  0  0  0  0
  1  8  1  0  0  0  0
  1 17  1  0  0  0  0
  4  9  1  0  0  0  0
  4 11  1  0  0  0  0
  4 12  1  0  0  0  0
  5  9  2  0  0  0  0
  5 14  1  0  0  0  0
  6 14  1  0  0  0  0
  6 15  1  0  0  0  0
  6 30  1  0  0  0  0
  7 14  2  0  0  0  0
  7 16  1  0  0  0  0
  8 40  1  0  0  0  0
  8 41  1  0  0  0  0
  9 10  1  0  0  0  0
 10 13  1  0  0  0  0
 10 16  2  0  0  0  0
 11 19  2  0  0  0  0
 11 20  1  0  0  0  0
 12 13  2  0  0  0  0
 12 27  1  0  0  0  0
 13 28  1  0  0  0  0
 15 18  2  0  0  0  0
 15 21  1  0  0  0  0
 16 29  1  0  0  0  0
 17 18  1  0  0  0  0
 17 22  2  0  0  0  0
 18 31  1  0  0  0  0
 19 24  1  0  0  0  0
 19 32  1  0  0  0  0
 20 25  2  0  0  0  0
 20 33  1  0  0  0  0
 21 23  2  0  0  0  0
 21 34  1  0  0  0  0
 22 23  1  0  0  0  0
 22 35  1  0  0  0  0
 23 36  1  0  0  0  0
 24 26  2  0  0  0  0
 24 37  1  0  0  0  0
 25 26  1  0  0  0  0
 25 38  1  0  0  0  0
 26 39  1  0  0  0  0
M  END
> <PUBCHEM_COMPOUND_CID>
49830876

> <PUBCHEM_CONFORMER_RMSD>
0.8

> <PUBCHEM_CONFORMER_DIVERSEORDER>
1
65
103
48
41
27
91
66
8
33
40
54
24
43
13
69
58
112
16
6
101
104
64
22
53
21
82
3
7
86
34
4
9
36
44
42
90
25
79
57
12
30
45
61
89
14
29
11
51
59
5
110
62
26
19
35
37
52
10
100
117
75
47
23
20
38
93
67
32
88
80
68
102
87
114
2
96
106
76
70
63
71
15
81
92
31
116
39
95
74
94
28
99
77
60
109
18
72
105
78
46
49
56
98
73
111
17
113
115
50
107
85
97
55
83
108
84

> <PUBCHEM_MMFF94_PARTIAL_CHARGES>
40
1 1.45
11 -0.02
12 -0.3
13 -0.15
14 0.72
15 0.1
16 0.16
17 -0.01
18 -0.15
19 -0.15
2 -0.65
20 -0.15
21 -0.15
22 -0.15
23 -0.15
24 -0.15
25 -0.15
26 -0.15
27 0.15
28 0.15
29 0.15
3 -0.65
30 0.4
31 0.15
32 0.15
33 0.15
34 0.15
35 0.15
36 0.15
37 0.15
38 0.15
39 0.15
4 0.33
40 0.42
41 0.42
5 -0.57
6 -0.6
7 -0.62
8 -0.98
9 0.11

> <PUBCHEM_EFFECTIVE_ROTOR_COUNT>
4

> <PUBCHEM_PHARMACOPHORE_FEATURES>
9
1 2 acceptor
1 3 acceptor
1 6 donor
1 8 donor
4 5 6 7 14 cation
5 4 9 10 12 13 rings
6 11 19 20 24 25 26 rings
6 15 17 18 21 22 23 rings
6 5 7 9 10 14 16 rings

> <PUBCHEM_HEAVY_ATOM_COUNT>
26

> <PUBCHEM_ATOM_DEF_STEREO_COUNT>
0

> <PUBCHEM_ATOM_UDEF_STEREO_COUNT>
0

> <PUBCHEM_BOND_DEF_STEREO_COUNT>
0

> <PUBCHEM_BOND_UDEF_STEREO_COUNT>
0

> <PUBCHEM_ISOTOPIC_ATOM_COUNT>
0

> <PUBCHEM_COMPONENT_COUNT>
1

> <PUBCHEM_CACTVS_TAUTO_COUNT>
4

> <PUBCHEM_CONFORMER_ID>
02F85BDC00000001

> <PUBCHEM_MMFF94_ENERGY>
69.8379

> <PUBCHEM_FEATURE_SELFOVERLAP>
45.806

> <PUBCHEM_SHAPE_FINGERPRINT>
10411042 1 18194400228835179691
10462674 296 17553474087282174214
10616163 171 18410853256868247099
10759866 29 18188487948210735818
11014199 57 17907012129518080771
11315621 246 18337118882445206244
12553582 1 18266164218607800123
12788726 201 18333724728262290995
12821665 9 18264212572858058476
13402501 40 18130791131198339231
13631057 29 18411135883138662928
13726171 33 17983608404486932556
13785724 45 17977959208992413491
138480 1 16394082515275144643
14114206 34 18116128108744894319
14251757 5 18411981342855141739
14279260 333 18187639181702287898
14617045 38 18410295774687508755
14790565 3 18051696538437078105
14866123 147 18412547635311562515
14931854 50 18261939809229711439
15042514 8 18410575119745646737
15250474 111 18261379010902145530
15415430 112 18409727352618750144
15537594 2 18259708882460913867
15927050 60 17838897037239697901
16110190 28 18341340001772747073
16719943 64 18339073770832264131
17909252 39 18126293167137669144
19319366 153 17822570486945001363
19930381 70 17111559550899130187
19958102 18 18265329495839498076
20101258 96 18263933313973430075
20511986 3 17749940064845297200
20775530 9 18190449657549036195
221357 26 18266175213291788523
22393880 68 18410854365581570434
22849339 104 18340218409475736951
23379529 103 18271253814993664878
23559900 14 18340757225939921576
238078 22 18411700993181325672
25147074 1 17895468143064960906
255183 451 17765434636192169495
3246875 12 18197488744445185968
329604 57 18263928898741592742
335352 9 18410569618303802735
3882209 13 16902952465077835678
4058900 60 17976260132624652397
445580 160 18271531914479456846
44880168 125 17632585971613878598
484989 97 18263350556327256319
5309563 4 18048878795199247955
56633871 153 18054235598981048667
6437827 68 18269273457224064310
6823239 73 18272076232579710624
6898599 12 18261112933003610452
7237137 82 18333734645351839444

> <PUBCHEM_SHAPE_MULTIPOLES>
502.27
12.6
4.47
0.92
18.63
0.93
0.17
3.06
2.42
-7
0.04
0.93
0.29
0.03

> <PUBCHEM_SHAPE_SELFOVERLAP>
1104.515

> <PUBCHEM_SHAPE_VOLUME>
271.8

> <PUBCHEM_COORDINATE_TYPE>
2
5
10

$$$$
