16105510
  -OEChem-10062122003D

 40 45  0     0  0  0  0  0  0999 V2000
   -2.3034   -2.8344    0.5083 O   0  0  0  0  0  0  0  0  0  0  0  0
    2.2439   -3.1463    0.1046 O   0  0  0  0  0  0  0  0  0  0  0  0
    1.9194    2.0649   -0.0383 N   0  0  0  0  0  0  0  0  0  0  0  0
   -0.0638   -3.3559    0.2269 N   0  0  0  0  0  0  0  0  0  0  0  0
   -0.4661    1.2350    0.0197 C   0  0  0  0  0  0  0  0  0  0  0  0
   -1.2888    0.0702   -0.0311 C   0  0  0  0  0  0  0  0  0  0  0  0
    0.9450    1.0938   -0.0158 C   0  0  0  0  0  0  0  0  0  0  0  0
    1.6019   -0.1426   -0.0298 C   0  0  0  0  0  0  0  0  0  0  0  0
   -1.1333    2.5937    0.1006 C   0  0  0  0  0  0  0  0  0  0  0  0
   -0.6331   -1.1565    0.0537 C   0  0  0  0  0  0  0  0  0  0  0  0
    0.7663   -1.2641    0.0314 C   0  0  0  0  0  0  0  0  0  0  0  0
   -2.4192    2.5181    0.9299 C   0  0  0  0  0  0  0  0  0  0  0  0
   -2.7564    0.2679   -0.1460 C   0  0  0  0  0  0  0  0  0  0  0  0
   -3.3288    1.4605    0.3550 C   0  0  0  0  0  0  0  0  0  0  0  0
    3.0143    0.1231   -0.0782 C   0  0  0  0  0  0  0  0  0  0  0  0
    3.1726    1.5103   -0.0828 C   0  0  0  0  0  0  0  0  0  0  0  0
   -1.1526   -2.5244    0.2653 C   0  0  0  0  0  0  0  0  0  0  0  0
    1.1216   -2.6810    0.1149 C   0  0  0  0  0  0  0  0  0  0  0  0
   -3.6095   -0.6205   -0.8191 C   0  0  0  0  0  0  0  0  0  0  0  0
   -4.7129    1.6771    0.3004 C   0  0  0  0  0  0  0  0  0  0  0  0
    4.1862   -0.6651   -0.1190 C   0  0  0  0  0  0  0  0  0  0  0  0
    4.4219    2.1420   -0.1243 C   0  0  0  0  0  0  0  0  0  0  0  0
   -4.9876   -0.3943   -0.8895 C   0  0  0  0  0  0  0  0  0  0  0  0
   -5.5411    0.7436   -0.3133 C   0  0  0  0  0  0  0  0  0  0  0  0
    5.4444   -0.0500   -0.1608 C   0  0  0  0  0  0  0  0  0  0  0  0
    5.5588    1.3350   -0.1630 C   0  0  0  0  0  0  0  0  0  0  0  0
   -0.4636    3.3278    0.5616 H   0  0  0  0  0  0  0  0  0  0  0  0
   -1.3502    2.9342   -0.9198 H   0  0  0  0  0  0  0  0  0  0  0  0
   -2.9082    3.4991    0.9184 H   0  0  0  0  0  0  0  0  0  0  0  0
   -2.1981    2.2656    1.9744 H   0  0  0  0  0  0  0  0  0  0  0  0
    1.7379    3.0587   -0.0357 H   0  0  0  0  0  0  0  0  0  0  0  0
   -3.2173   -1.4976   -1.3268 H   0  0  0  0  0  0  0  0  0  0  0  0
   -0.1248   -4.3617    0.3399 H   0  0  0  0  0  0  0  0  0  0  0  0
   -5.1460    2.5846    0.7128 H   0  0  0  0  0  0  0  0  0  0  0  0
    4.1434   -1.7479   -0.1237 H   0  0  0  0  0  0  0  0  0  0  0  0
    4.5072    3.2238   -0.1259 H   0  0  0  0  0  0  0  0  0  0  0  0
   -5.6261   -1.1067   -1.4042 H   0  0  0  0  0  0  0  0  0  0  0  0
   -6.6117    0.9167   -0.3676 H   0  0  0  0  0  0  0  0  0  0  0  0
    6.3398   -0.6651   -0.1930 H   0  0  0  0  0  0  0  0  0  0  0  0
    6.5427    1.7950   -0.1960 H   0  0  0  0  0  0  0  0  0  0  0  0
  1 17  2  0  0  0  0
  2 18  2  0  0  0  0
  3  7  1  0  0  0  0
  3 16  1  0  0  0  0
  3 31  1  0  0  0  0
  4 17  1  0  0  0  0
  4 18  1  0  0  0  0
  4 33  1  0  0  0  0
  5  6  2  0  0  0  0
  5  7  1  0  0  0  0
  5  9  1  0  0  0  0
  6 10  1  0  0  0  0
  6 13  1  0  0  0  0
  7  8  2  0  0  0  0
  8 11  1  0  0  0  0
  8 15  1  0  0  0  0
  9 12  1  0  0  0  0
  9 27  1  0  0  0  0
  9 28  1  0  0  0  0
 10 11  2  0  0  0  0
 10 17  1  0  0  0  0
 11 18  1  0  0  0  0
 12 14  1  0  0  0  0
 12 29  1  0  0  0  0
 12 30  1  0  0  0  0
 13 14  1  0  0  0  0
 13 19  2  0  0  0  0
 14 20  2  0  0  0  0
 15 16  1  0  0  0  0
 15 21  2  0  0  0  0
 16 22  2  0  0  0  0
 19 23  1  0  0  0  0
 19 32  1  0  0  0  0
 20 24  1  0  0  0  0
 20 34  1  0  0  0  0
 21 25  1  0  0  0  0
 21 35  1  0  0  0  0
 22 26  1  0  0  0  0
 22 36  1  0  0  0  0
 23 24  2  0  0  0  0
 23 37  1  0  0  0  0
 24 38  1  0  0  0  0
 25 26  2  0  0  0  0
 25 39  1  0  0  0  0
 26 40  1  0  0  0  0
M  END
> <PUBCHEM_COMPOUND_CID>
16105510

> <PUBCHEM_CONFORMER_RMSD>
0.6

> <PUBCHEM_CONFORMER_DIVERSEORDER>
1
2

> <PUBCHEM_MMFF94_PARTIAL_CHARGES>
32
1 -0.57
10 0.09
11 0.09
12 0.14
14 -0.14
16 -0.15
17 0.54
18 0.54
19 -0.15
2 -0.57
20 -0.15
21 -0.15
22 -0.15
23 -0.15
24 -0.15
25 -0.15
26 -0.15
3 0.03
31 0.27
32 0.15
33 0.37
34 0.15
35 0.15
36 0.15
37 0.15
38 0.15
39 0.15
4 -0.49
40 0.15
5 -0.14
7 -0.15
9 0.14

> <PUBCHEM_EFFECTIVE_ROTOR_COUNT>
0.6

> <PUBCHEM_PHARMACOPHORE_FEATURES>
11
1 1 acceptor
1 2 acceptor
1 3 cation
1 3 donor
1 4 donor
5 3 7 8 15 16 rings
5 4 10 11 17 18 rings
6 13 14 19 20 23 24 rings
6 15 16 21 22 25 26 rings
6 5 6 7 8 10 11 rings
6 5 6 9 12 13 14 rings

> <PUBCHEM_HEAVY_ATOM_COUNT>
26

> <PUBCHEM_ATOM_DEF_STEREO_COUNT>
0

> <PUBCHEM_ATOM_UDEF_STEREO_COUNT>
0

> <PUBCHEM_BOND_DEF_STEREO_COUNT>
0

> <PUBCHEM_BOND_UDEF_STEREO_COUNT>
0

> <PUBCHEM_ISOTOPIC_ATOM_COUNT>
0

> <PUBCHEM_COMPONENT_COUNT>
1

> <PUBCHEM_CACTVS_TAUTO_COUNT>
12

> <PUBCHEM_CONFORMER_ID>
00F5C02600000001

> <PUBCHEM_MMFF94_ENERGY>
79.9747

> <PUBCHEM_FEATURE_SELFOVERLAP>
56.126

> <PUBCHEM_SHAPE_FINGERPRINT>
10090160 65 18334293158630573269
10319926 262 18126548237283620968
10411042 1 17401770117021941994
10693767 8 18131055031200900479
10906281 52 18270699634978365972
10967382 1 18410293571036943875
1100329 8 18338800146918841361
11135609 187 18408878564266219661
11513181 2 18059011683580146855
12107183 9 17549829880218232281
12236239 1 18059855043758814869
12788726 201 18202002096898430105
12838862 33 18338779170620405493
13140716 1 18266462181552087808
138480 1 17617660955917363426
14767858 380 18341319089946287383
14787075 74 18201717362168148257
14790565 3 18410580582237867041
14931854 50 18340756110059931487
15131766 46 16228033646921742388
15196674 1 18411138056165371684
15209289 33 18342454850486364545
15420108 30 16546390220403548720
17349148 13 18408314480177200801
18608769 82 18336829805804006315
18681886 176 18338791312234521152
19591789 44 18266460914948276292
20028762 73 18272645719262697318
20510252 161 18197786702809175784
20775438 99 16115105156394969919
21033648 144 18188760777460536516
21033650 10 17558863670043231392
21236236 1 18338799039086206847
21267235 1 18342181089898437749
21279426 13 18411141320625593990
21421861 104 18045219328290369385
21796203 349 17114421068074597715
21857420 4 15186779693280514245
22182313 1 18267047065867261358
22393880 68 18196658384461563053
23402539 116 18343297093583679493
23559900 14 18270115855108987152
23566358 2 18196368126344953119
23569917 315 18409730664203221890
25147074 1 17986948545530359321
266924 87 18192703463033665565
3178227 256 18337967778642229433
335352 9 18409730656382349110
3380486 145 16967179392915239522
350125 39 18337952264582006700
352729 6 18337965600238903666
3680242 22 18335698283167613234
392239 28 18339094769354499819
404807 14 15547453184478308366
474 4 18409166571908714851
474229 33 18410292514596477241
484989 97 17975127957960741471
5104073 3 18262513823229702256
5486654 2 18411702105678186005
59755656 215 18411422774285437910
6138700 20 18339926996577764126
9709674 26 18271816717812800046
9981440 41 18408321107417526603

> <PUBCHEM_SHAPE_MULTIPOLES>
513.37
10.73
3.49
0.73
2.06
2.18
0.02
-4.87
1.59
0.11
-0.62
-0.39
-0.05
-0.52

> <PUBCHEM_SHAPE_SELFOVERLAP>
1202.585

> <PUBCHEM_SHAPE_VOLUME>
260.2

> <PUBCHEM_COORDINATE_TYPE>
2
5
10

$$$$
