10407341
  -OEChem-10062121573D

 42 45  0     0  0  0  0  0  0999 V2000
    2.1591    4.3656   -0.8170 O   0  0  0  0  0  0  0  0  0  0  0  0
   -2.1603    4.3639    0.8181 O   0  0  0  0  0  0  0  0  0  0  0  0
    1.3293   -0.9711   -0.5024 N   0  0  0  0  0  0  0  0  0  0  0  0
   -1.3287   -0.9716    0.5012 N   0  0  0  0  0  0  0  0  0  0  0  0
   -0.0006    4.7700    0.0008 N   0  0  0  0  0  0  0  0  0  0  0  0
    7.8902   -2.4435    0.4484 N   0  0  0  0  0  0  0  0  0  0  0  0
   -7.8900   -2.4437   -0.4471 N   0  0  0  0  0  0  0  0  0  0  0  0
    0.6491    2.6193   -0.2456 C   0  0  0  0  0  0  0  0  0  0  0  0
   -0.6497    2.6189    0.2449 C   0  0  0  0  0  0  0  0  0  0  0  0
    0.6599    0.2505   -0.2499 C   0  0  0  0  0  0  0  0  0  0  0  0
   -0.6594    0.2501    0.2483 C   0  0  0  0  0  0  0  0  0  0  0  0
    1.3325    1.4493   -0.5038 C   0  0  0  0  0  0  0  0  0  0  0  0
   -1.3327    1.4485    0.5027 C   0  0  0  0  0  0  0  0  0  0  0  0
    1.0715    4.0105   -0.4046 C   0  0  0  0  0  0  0  0  0  0  0  0
   -1.0725    4.0098    0.4053 C   0  0  0  0  0  0  0  0  0  0  0  0
    2.6660   -1.2711   -0.3086 C   0  0  0  0  0  0  0  0  0  0  0  0
   -2.6655   -1.2716    0.3079 C   0  0  0  0  0  0  0  0  0  0  0  0
    3.2845   -2.3162   -1.0221 C   0  0  0  0  0  0  0  0  0  0  0  0
   -3.2838   -2.3165    1.0217 C   0  0  0  0  0  0  0  0  0  0  0  0
    3.4468   -0.5400    0.6077 C   0  0  0  0  0  0  0  0  0  0  0  0
   -3.4467   -0.5405   -0.6080 C   0  0  0  0  0  0  0  0  0  0  0  0
    4.6321   -2.6186   -0.8266 C   0  0  0  0  0  0  0  0  0  0  0  0
   -4.6315   -2.6191    0.8268 C   0  0  0  0  0  0  0  0  0  0  0  0
    4.7945   -0.8425    0.8030 C   0  0  0  0  0  0  0  0  0  0  0  0
   -4.7945   -0.8429   -0.8027 C   0  0  0  0  0  0  0  0  0  0  0  0
    5.3870   -1.8819    0.0857 C   0  0  0  0  0  0  0  0  0  0  0  0
   -5.3868   -1.8821   -0.0852 C   0  0  0  0  0  0  0  0  0  0  0  0
    6.7675   -2.1916    0.2858 C   0  0  0  0  0  0  0  0  0  0  0  0
   -6.7674   -2.1918   -0.2847 C   0  0  0  0  0  0  0  0  0  0  0  0
    2.3343    1.4851   -0.9169 H   0  0  0  0  0  0  0  0  0  0  0  0
   -2.3343    1.4838    0.9161 H   0  0  0  0  0  0  0  0  0  0  0  0
    0.7367   -1.7311   -0.8176 H   0  0  0  0  0  0  0  0  0  0  0  0
   -0.7359   -1.7315    0.8160 H   0  0  0  0  0  0  0  0  0  0  0  0
   -0.0008    5.7840    0.0013 H   0  0  0  0  0  0  0  0  0  0  0  0
    2.7102   -2.9002   -1.7380 H   0  0  0  0  0  0  0  0  0  0  0  0
   -2.7092   -2.9005    1.7374 H   0  0  0  0  0  0  0  0  0  0  0  0
    3.0179    0.2521    1.2162 H   0  0  0  0  0  0  0  0  0  0  0  0
   -3.0181    0.2515   -1.2167 H   0  0  0  0  0  0  0  0  0  0  0  0
    5.0798   -3.4316   -1.3933 H   0  0  0  0  0  0  0  0  0  0  0  0
   -5.0791   -3.4320    1.3936 H   0  0  0  0  0  0  0  0  0  0  0  0
    5.3683   -0.2647    1.5238 H   0  0  0  0  0  0  0  0  0  0  0  0
   -5.3685   -0.2650   -1.5232 H   0  0  0  0  0  0  0  0  0  0  0  0
  1 14  2  0  0  0  0
  2 15  2  0  0  0  0
  3 10  1  0  0  0  0
  3 16  1  0  0  0  0
  3 32  1  0  0  0  0
  4 11  1  0  0  0  0
  4 17  1  0  0  0  0
  4 33  1  0  0  0  0
  5 14  1  0  0  0  0
  5 15  1  0  0  0  0
  5 34  1  0  0  0  0
  6 28  3  0  0  0  0
  7 29  3  0  0  0  0
  8  9  1  0  0  0  0
  8 12  2  0  0  0  0
  8 14  1  0  0  0  0
  9 13  2  0  0  0  0
  9 15  1  0  0  0  0
 10 11  2  0  0  0  0
 10 12  1  0  0  0  0
 11 13  1  0  0  0  0
 12 30  1  0  0  0  0
 13 31  1  0  0  0  0
 16 18  2  0  0  0  0
 16 20  1  0  0  0  0
 17 19  2  0  0  0  0
 17 21  1  0  0  0  0
 18 22  1  0  0  0  0
 18 35  1  0  0  0  0
 19 23  1  0  0  0  0
 19 36  1  0  0  0  0
 20 24  2  0  0  0  0
 20 37  1  0  0  0  0
 21 25  2  0  0  0  0
 21 38  1  0  0  0  0
 22 26  2  0  0  0  0
 22 39  1  0  0  0  0
 23 27  2  0  0  0  0
 23 40  1  0  0  0  0
 24 26  1  0  0  0  0
 24 41  1  0  0  0  0
 25 27  1  0  0  0  0
 25 42  1  0  0  0  0
 26 28  1  0  0  0  0
 27 29  1  0  0  0  0
M  END
> <PUBCHEM_COMPOUND_CID>
10407341

> <PUBCHEM_CONFORMER_RMSD>
0.8

> <PUBCHEM_CONFORMER_DIVERSEORDER>
1
8
6
13
7
15
2
14
9
5
10
3
11
16
17
12
4

> <PUBCHEM_MMFF94_PARTIAL_CHARGES>
42
1 -0.57
10 0.1
11 0.1
12 -0.15
13 -0.15
14 0.54
15 0.54
16 0.1
17 0.1
18 -0.15
19 -0.15
2 -0.57
20 -0.15
21 -0.15
22 -0.15
23 -0.15
24 -0.15
25 -0.15
26 0.07
27 0.07
28 0.48
29 0.48
3 -0.6
30 0.15
31 0.15
32 0.4
33 0.4
34 0.37
35 0.15
36 0.15
37 0.15
38 0.15
39 0.15
4 -0.6
40 0.15
41 0.15
42 0.15
5 -0.49
6 -0.56
7 -0.56
8 0.09
9 0.09

> <PUBCHEM_EFFECTIVE_ROTOR_COUNT>
4.2

> <PUBCHEM_PHARMACOPHORE_FEATURES>
13
1 1 acceptor
1 2 acceptor
1 3 cation
1 3 donor
1 4 cation
1 4 donor
1 5 donor
1 6 acceptor
1 7 acceptor
5 5 8 9 14 15 rings
6 16 18 20 22 24 26 rings
6 17 19 21 23 25 27 rings
6 8 9 10 11 12 13 rings

> <PUBCHEM_HEAVY_ATOM_COUNT>
29

> <PUBCHEM_ATOM_DEF_STEREO_COUNT>
0

> <PUBCHEM_ATOM_UDEF_STEREO_COUNT>
0

> <PUBCHEM_BOND_DEF_STEREO_COUNT>
0

> <PUBCHEM_BOND_UDEF_STEREO_COUNT>
0

> <PUBCHEM_ISOTOPIC_ATOM_COUNT>
0

> <PUBCHEM_COMPONENT_COUNT>
1

> <PUBCHEM_CACTVS_TAUTO_COUNT>
17

> <PUBCHEM_CONFORMER_ID>
009ECDAD00000001

> <PUBCHEM_MMFF94_ENERGY>
109.029

> <PUBCHEM_FEATURE_SELFOVERLAP>
66.071

> <PUBCHEM_SHAPE_FINGERPRINT>
10411042 1 18410573989446444423
1100329 8 18337958879359657089
11062273 19 18194127540659300638
11101153 10 18409173212746027004
11265709 11 18410295804441153803
12107183 9 18270413715796694033
12202916 173 18410853265401205219
12516196 113 18410290324126726726
12623949 98 17489039162614800062
12730499 353 17832996318920129691
12788726 201 18262816098538088114
13004483 165 18412819192433313426
13540713 5 18338536182323849541
13631057 29 18335419016041709586
13782708 43 17896321492884938411
138480 1 14878910321401244385
140371 6 18410584975994380319
14068700 675 18409448076659961686
14068700 686 18199185088791181694
14508225 48 18410285887351423332
14866123 147 18122910820019758603
15042514 8 18266748969398438921
15131766 46 15291333173457851014
15183329 4 15647050451904289775
15927050 60 17619916497248340022
16087824 20 18122062006267000949
16992727 255 17898282806542689117
16992752 21 18410866438950943670
16993427 108 18188469312316594554
17686467 74 18410567380683922274
1813 80 18130240306011441087
18365409 1 18122906422412007157
1979834 28 18126836317186504296
20238998 120 18342173354061386313
20642791 13 18267026063809162038
20771845 171 17970348329063676300
20771845 65 18272932764779985281
21133410 58 18339354275669690671
21304303 172 18339645546690089305
2132832 1 18187094923203036252
21703447 108 18339068333962648842
21796203 349 18048352038692338570
23536364 44 18262787472633327711
23559900 14 18265047123684640243
255183 313 17837793139780302929
283562 15 18263363594666506794
3004659 81 17967249810570095026
3103668 31 18189331265704353285
4015057 19 18266452304003565127
437815 12 18408038520613913623
4408954 87 17125669124315498905
5309563 4 18411699880911649726
5385378 56 18050854613246243857
5969126 39 18342168926087046326
6004065 56 18338232790329286235
613672 6 18410858758664039023
6698420 124 17123114906995216904
6700243 42 17843153358202964180
6703917 75 9367063423729476642
77188 2 18410855490230564276

> <PUBCHEM_SHAPE_MULTIPOLES>
560.16
15.63
6.16
0.91
0
10.26
0
-25.72
0
0
0
0
-0.19
-0.42

> <PUBCHEM_SHAPE_SELFOVERLAP>
1250.352

> <PUBCHEM_SHAPE_VOLUME>
293.5

> <PUBCHEM_COORDINATE_TYPE>
2
5
10

$$$$
