5328137
  -OEChem-10062122033D

 69 72  0     0  0  0  0  0  0999 V2000
   -4.1019   -2.1651    2.6734 Cl  0  0  0  0  0  0  0  0  0  0  0  0
   -3.9842   -2.0637   -2.8045 Cl  0  0  0  0  0  0  0  0  0  0  0  0
   -1.2421    2.1067    0.0712 O   0  0  0  0  0  0  0  0  0  0  0  0
    8.5799    1.1091    0.2995 N   0  0  0  0  0  0  0  0  0  0  0  0
    3.5107   -2.4895    0.0880 N   0  0  0  0  0  0  0  0  0  0  0  0
    1.3852   -1.5472    0.0606 N   0  0  0  0  0  0  0  0  0  0  0  0
    1.6979   -3.9347    0.0229 N   0  0  0  0  0  0  0  0  0  0  0  0
   -0.7289   -0.6032    0.0333 N   0  0  0  0  0  0  0  0  0  0  0  0
   -2.8517    0.4079    0.0071 N   0  0  0  0  0  0  0  0  0  0  0  0
   -3.5259    2.6084    0.0335 N   0  0  0  0  0  0  0  0  0  0  0  0
    7.9085   -0.1844    0.2483 C   0  0  0  0  0  0  0  0  0  0  0  0
    6.3931    0.0061    0.1934 C   0  0  0  0  0  0  0  0  0  0  0  0
    5.6687   -1.3436    0.1486 C   0  0  0  0  0  0  0  0  0  0  0  0
    9.9196    0.9722    0.8735 C   0  0  0  0  0  0  0  0  0  0  0  0
    8.6582    1.7022   -1.0366 C   0  0  0  0  0  0  0  0  0  0  0  0
    4.1498   -1.1963    0.1254 C   0  0  0  0  0  0  0  0  0  0  0  0
   10.7983    0.0824    0.0107 C   0  0  0  0  0  0  0  0  0  0  0  0
    9.2967    3.0800   -0.9890 C   0  0  0  0  0  0  0  0  0  0  0  0
    2.1365   -2.6684    0.0556 C   0  0  0  0  0  0  0  0  0  0  0  0
   -0.5125   -2.9687   -0.0063 C   0  0  0  0  0  0  0  0  0  0  0  0
    0.0554   -1.6897    0.0295 C   0  0  0  0  0  0  0  0  0  0  0  0
   -2.7098   -1.9839   -0.0347 C   0  0  0  0  0  0  0  0  0  0  0  0
   -1.9074   -3.1113   -0.0386 C   0  0  0  0  0  0  0  0  0  0  0  0
   -2.0743   -0.7609    0.0018 C   0  0  0  0  0  0  0  0  0  0  0  0
    0.3602   -4.0542   -0.0079 C   0  0  0  0  0  0  0  0  0  0  0  0
   -4.1502   -2.1249   -0.0680 C   0  0  0  0  0  0  0  0  0  0  0  0
   -4.8702   -2.2154    1.1233 C   0  0  0  0  0  0  0  0  0  0  0  0
   -4.8181   -2.1706   -1.2916 C   0  0  0  0  0  0  0  0  0  0  0  0
   -6.2580   -2.3514    1.0909 C   0  0  0  0  0  0  0  0  0  0  0  0
   -6.2060   -2.3067   -1.3240 C   0  0  0  0  0  0  0  0  0  0  0  0
   -2.4154    1.7493    0.0406 C   0  0  0  0  0  0  0  0  0  0  0  0
   -6.9259   -2.3970   -0.1328 C   0  0  0  0  0  0  0  0  0  0  0  0
   -3.5326    4.0231    0.0592 C   0  0  0  0  0  0  0  0  0  0  0  0
   -4.7436    4.7151    0.0469 C   0  0  0  0  0  0  0  0  0  0  0  0
   -2.3282    4.7258    0.0960 C   0  0  0  0  0  0  0  0  0  0  0  0
   -4.7504    6.1097    0.0716 C   0  0  0  0  0  0  0  0  0  0  0  0
   -2.3351    6.1205    0.1207 C   0  0  0  0  0  0  0  0  0  0  0  0
   -3.5461    6.8124    0.1085 C   0  0  0  0  0  0  0  0  0  0  0  0
    8.2340   -0.7928   -0.6051 H   0  0  0  0  0  0  0  0  0  0  0  0
    8.1257   -0.7643    1.1554 H   0  0  0  0  0  0  0  0  0  0  0  0
    6.0581    0.5692    1.0738 H   0  0  0  0  0  0  0  0  0  0  0  0
    6.0955    0.5823   -0.6892 H   0  0  0  0  0  0  0  0  0  0  0  0
    5.9941   -1.9034   -0.7378 H   0  0  0  0  0  0  0  0  0  0  0  0
    5.9606   -1.9442    1.0197 H   0  0  0  0  0  0  0  0  0  0  0  0
    9.8406    0.5339    1.8770 H   0  0  0  0  0  0  0  0  0  0  0  0
   10.3975    1.9432    1.0406 H   0  0  0  0  0  0  0  0  0  0  0  0
    7.6442    1.8568   -1.4225 H   0  0  0  0  0  0  0  0  0  0  0  0
    9.1602    1.0707   -1.7782 H   0  0  0  0  0  0  0  0  0  0  0  0
    3.8260   -0.6469    1.0175 H   0  0  0  0  0  0  0  0  0  0  0  0
    3.8571   -0.6106   -0.7544 H   0  0  0  0  0  0  0  0  0  0  0  0
   11.7568   -0.0619    0.5242 H   0  0  0  0  0  0  0  0  0  0  0  0
   11.0437    0.5245   -0.9588 H   0  0  0  0  0  0  0  0  0  0  0  0
   10.3883   -0.9190   -0.1470 H   0  0  0  0  0  0  0  0  0  0  0  0
    9.1309    3.5934   -1.9430 H   0  0  0  0  0  0  0  0  0  0  0  0
   10.3798    3.0374   -0.8409 H   0  0  0  0  0  0  0  0  0  0  0  0
    8.8558    3.7042   -0.2041 H   0  0  0  0  0  0  0  0  0  0  0  0
    4.0802   -3.3281    0.0847 H   0  0  0  0  0  0  0  0  0  0  0  0
   -2.3500   -4.1054   -0.0667 H   0  0  0  0  0  0  0  0  0  0  0  0
   -0.0050   -5.0765   -0.0347 H   0  0  0  0  0  0  0  0  0  0  0  0
   -3.8594    0.2847   -0.0163 H   0  0  0  0  0  0  0  0  0  0  0  0
   -6.8350   -2.4232    2.0095 H   0  0  0  0  0  0  0  0  0  0  0  0
   -6.7429   -2.3439   -2.2686 H   0  0  0  0  0  0  0  0  0  0  0  0
   -8.0065   -2.5028   -0.1580 H   0  0  0  0  0  0  0  0  0  0  0  0
   -4.4432    2.1705    0.0068 H   0  0  0  0  0  0  0  0  0  0  0  0
   -5.6892    4.1798    0.0180 H   0  0  0  0  0  0  0  0  0  0  0  0
   -1.3511    4.2649    0.1074 H   0  0  0  0  0  0  0  0  0  0  0  0
   -5.6933    6.6485    0.0621 H   0  0  0  0  0  0  0  0  0  0  0  0
   -1.3980    6.6690    0.1494 H   0  0  0  0  0  0  0  0  0  0  0  0
   -3.5513    7.8983    0.1278 H   0  0  0  0  0  0  0  0  0  0  0  0
  1 27  1  0  0  0  0
  2 28  1  0  0  0  0
  3 31  2  0  0  0  0
  4 11  1  0  0  0  0
  4 14  1  0  0  0  0
  4 15  1  0  0  0  0
  5 16  1  0  0  0  0
  5 19  1  0  0  0  0
  5 57  1  0  0  0  0
  6 19  2  0  0  0  0
  6 21  1  0  0  0  0
  7 19  1  0  0  0  0
  7 25  2  0  0  0  0
  8 21  2  0  0  0  0
  8 24  1  0  0  0  0
  9 24  1  0  0  0  0
  9 31  1  0  0  0  0
  9 60  1  0  0  0  0
 10 31  1  0  0  0  0
 10 33  1  0  0  0  0
 10 64  1  0  0  0  0
 11 12  1  0  0  0  0
 11 39  1  0  0  0  0
 11 40  1  0  0  0  0
 12 13  1  0  0  0  0
 12 41  1  0  0  0  0
 12 42  1  0  0  0  0
 13 16  1  0  0  0  0
 13 43  1  0  0  0  0
 13 44  1  0  0  0  0
 14 17  1  0  0  0  0
 14 45  1  0  0  0  0
 14 46  1  0  0  0  0
 15 18  1  0  0  0  0
 15 47  1  0  0  0  0
 15 48  1  0  0  0  0
 16 49  1  0  0  0  0
 16 50  1  0  0  0  0
 17 51  1  0  0  0  0
 17 52  1  0  0  0  0
 17 53  1  0  0  0  0
 18 54  1  0  0  0  0
 18 55  1  0  0  0  0
 18 56  1  0  0  0  0
 20 21  1  0  0  0  0
 20 23  2  0  0  0  0
 20 25  1  0  0  0  0
 22 23  1  0  0  0  0
 22 24  2  0  0  0  0
 22 26  1  0  0  0  0
 23 58  1  0  0  0  0
 25 59  1  0  0  0  0
 26 27  2  0  0  0  0
 26 28  1  0  0  0  0
 27 29  1  0  0  0  0
 28 30  2  0  0  0  0
 29 32  2  0  0  0  0
 29 61  1  0  0  0  0
 30 32  1  0  0  0  0
 30 62  1  0  0  0  0
 32 63  1  0  0  0  0
 33 34  2  0  0  0  0
 33 35  1  0  0  0  0
 34 36  1  0  0  0  0
 34 65  1  0  0  0  0
 35 37  2  0  0  0  0
 35 66  1  0  0  0  0
 36 38  2  0  0  0  0
 36 67  1  0  0  0  0
 37 38  1  0  0  0  0
 37 68  1  0  0  0  0
 38 69  1  0  0  0  0
M  END
> <PUBCHEM_COMPOUND_CID>
5328137

> <PUBCHEM_CONFORMER_RMSD>
1.2

> <PUBCHEM_CONFORMER_DIVERSEORDER>
1
16
102
78
20
53
61
31
77
73
65
82
14
30
100
58
27
89
88
64
33
79
101
32
97
71
50
35
90
68
107
92
18
72
38
76
66
57
87
95
59
93
39
17
85
52
109
22
96
74
23
9
86
84
56
49
106
5
47
34
26
19
98
94
81
12
24
83
55
44
25
13
45
69
42
60
80
103
104
46
99
21
10
108
67
54
63
36
51
62
6
48
40
75
8
70
4
105
37
110
91
2
41
7
43
15
28
11
29
3

> <PUBCHEM_MMFF94_PARTIAL_CHARGES>
44
1 -0.18
10 -0.55
11 0.27
14 0.27
15 0.27
16 0.37
19 0.72
2 -0.18
21 0.62
23 -0.15
24 0.43
25 0.16
27 0.18
28 0.18
29 -0.15
3 -0.57
30 -0.15
31 0.69
32 -0.15
33 0.12
34 -0.15
35 -0.15
36 -0.15
37 -0.15
38 -0.15
4 -0.81
5 -0.87
57 0.4
58 0.15
59 0.15
6 -0.62
60 0.37
61 0.15
62 0.15
63 0.15
64 0.37
65 0.15
66 0.15
67 0.15
68 0.15
69 0.15
7 -0.62
8 -0.62
9 -0.55

> <PUBCHEM_EFFECTIVE_ROTOR_COUNT>
13

> <PUBCHEM_PHARMACOPHORE_FEATURES>
11
1 10 donor
1 3 acceptor
1 4 cation
1 5 donor
1 7 acceptor
1 9 donor
4 5 6 7 19 cation
6 26 27 28 29 30 32 rings
6 33 34 35 36 37 38 rings
6 6 7 19 20 21 25 rings
6 8 20 21 22 23 24 rings

> <PUBCHEM_HEAVY_ATOM_COUNT>
38

> <PUBCHEM_ATOM_DEF_STEREO_COUNT>
0

> <PUBCHEM_ATOM_UDEF_STEREO_COUNT>
0

> <PUBCHEM_BOND_DEF_STEREO_COUNT>
0

> <PUBCHEM_BOND_UDEF_STEREO_COUNT>
0

> <PUBCHEM_ISOTOPIC_ATOM_COUNT>
0

> <PUBCHEM_COMPONENT_COUNT>
1

> <PUBCHEM_CACTVS_TAUTO_COUNT>
24

> <PUBCHEM_CONFORMER_ID>
00514D0900000001

> <PUBCHEM_MMFF94_ENERGY>
111.0671

> <PUBCHEM_FEATURE_SELFOVERLAP>
55.909

> <PUBCHEM_SHAPE_FINGERPRINT>
10050765 1 18194964041607821450
11331860 1 18411136927396945400
11621639 254 18270113647205120926
12677640 9 18411983533384629637
12741549 16 17822015359208369287
13165053 182 18187915133108249053
14118638 360 18261106366831817394
14150022 121 18335419062653119820
14790565 3 17402892225115454453
15289351 153 18336818729399952186
15347591 1 18266458707615447186
16114785 44 18117570535552701107
19053607 189 18268414756228075890
19304144 158 18272930493333102974
19427546 62 17474107597498937385
20766409 102 18408327708956508909
437795 83 18411408501892757796

> <PUBCHEM_SHAPE_MULTIPOLES>
745.03
26.77
9.42
1.3
102.92
22.65
-0.17
8.86
-0.95
-19.14
0.19
-1.97
-1.14
-1.44

> <PUBCHEM_SHAPE_SELFOVERLAP>
1575.357

> <PUBCHEM_SHAPE_VOLUME>
418.8

> <PUBCHEM_COORDINATE_TYPE>
2
5
10

$$$$
