465921
  -OEChem-10052115163D

 38 43  0     1  0  0  0  0  0999 V2000
   -1.9385   -3.2344   -0.9946 O   0  0  0  0  0  0  0  0  0  0  0  0
    2.3245   -3.1790    0.1660 O   0  0  0  0  0  0  0  0  0  0  0  0
   -1.4179    2.2019   -0.0344 N   0  0  0  0  0  0  0  0  0  0  0  0
    1.3693    2.2141   -0.0646 N   0  0  0  0  0  0  0  0  0  0  0  0
    0.0252   -3.6456    0.2082 N   0  0  0  0  0  0  0  0  0  0  0  0
   -0.7262   -1.4888    0.1073 C   0  0  0  0  0  0  0  0  0  0  0  0
   -1.3437   -0.2381    0.0648 C   0  0  0  0  0  0  0  0  0  0  0  0
    1.3226   -0.2300    0.0397 C   0  0  0  0  0  0  0  0  0  0  0  0
    0.6727   -1.4633    0.0976 C   0  0  0  0  0  0  0  0  0  0  0  0
   -0.7150    1.0465    0.0047 C   0  0  0  0  0  0  0  0  0  0  0  0
    0.6818    1.0518   -0.0095 C   0  0  0  0  0  0  0  0  0  0  0  0
   -1.2165   -2.8979    0.1722 C   0  0  1  0  0  0  0  0  0  0  0  0
   -2.7145    0.2852    0.0633 C   0  0  0  0  0  0  0  0  0  0  0  0
    2.6907    0.3101    0.0063 C   0  0  0  0  0  0  0  0  0  0  0  0
   -2.7180    1.7178    0.0034 C   0  0  0  0  0  0  0  0  0  0  0  0
    2.6741    1.7449   -0.0547 C   0  0  0  0  0  0  0  0  0  0  0  0
    1.1578   -2.8376    0.1582 C   0  0  0  0  0  0  0  0  0  0  0  0
   -3.9666   -0.3728    0.1112 C   0  0  0  0  0  0  0  0  0  0  0  0
    3.9591   -0.3190    0.0229 C   0  0  0  0  0  0  0  0  0  0  0  0
   -3.9149    2.4491   -0.0092 C   0  0  0  0  0  0  0  0  0  0  0  0
    3.8581    2.4970   -0.0965 C   0  0  0  0  0  0  0  0  0  0  0  0
   -5.1534    0.3663    0.0978 C   0  0  0  0  0  0  0  0  0  0  0  0
    5.1334    0.4404   -0.0197 C   0  0  0  0  0  0  0  0  0  0  0  0
   -5.1256    1.7547    0.0381 C   0  0  0  0  0  0  0  0  0  0  0  0
    5.0816    1.8268   -0.0785 C   0  0  0  0  0  0  0  0  0  0  0  0
   -1.7993   -3.1097    1.0724 H   0  0  0  0  0  0  0  0  0  0  0  0
   -1.0848    3.1563   -0.0776 H   0  0  0  0  0  0  0  0  0  0  0  0
    1.0247    3.1646   -0.1021 H   0  0  0  0  0  0  0  0  0  0  0  0
    0.0655   -4.6584    0.2615 H   0  0  0  0  0  0  0  0  0  0  0  0
   -4.0156   -1.4574    0.1599 H   0  0  0  0  0  0  0  0  0  0  0  0
    4.0423   -1.4000    0.0680 H   0  0  0  0  0  0  0  0  0  0  0  0
   -3.9056    3.5340   -0.0546 H   0  0  0  0  0  0  0  0  0  0  0  0
    3.8277    3.5816   -0.1427 H   0  0  0  0  0  0  0  0  0  0  0  0
   -1.4268   -2.9345   -1.7650 H   0  0  0  0  0  0  0  0  0  0  0  0
   -6.1076   -0.1526    0.1350 H   0  0  0  0  0  0  0  0  0  0  0  0
    6.0966   -0.0629   -0.0064 H   0  0  0  0  0  0  0  0  0  0  0  0
   -6.0599    2.3103    0.0290 H   0  0  0  0  0  0  0  0  0  0  0  0
    6.0053    2.3988   -0.1109 H   0  0  0  0  0  0  0  0  0  0  0  0
  1 12  1  0  0  0  0
  1 34  1  0  0  0  0
  2 17  2  0  0  0  0
  3 10  1  0  0  0  0
  3 15  1  0  0  0  0
  3 27  1  0  0  0  0
  4 11  1  0  0  0  0
  4 16  1  0  0  0  0
  4 28  1  0  0  0  0
  5 12  1  0  0  0  0
  5 17  1  0  0  0  0
  5 29  1  0  0  0  0
  6  7  2  0  0  0  0
  6  9  1  0  0  0  0
  6 12  1  0  0  0  0
  7 10  1  0  0  0  0
  7 13  1  0  0  0  0
  8  9  2  0  0  0  0
  8 11  1  0  0  0  0
  8 14  1  0  0  0  0
  9 17  1  0  0  0  0
 10 11  2  0  0  0  0
 12 26  1  0  0  0  0
 13 15  1  0  0  0  0
 13 18  2  0  0  0  0
 14 16  1  0  0  0  0
 14 19  2  0  0  0  0
 15 20  2  0  0  0  0
 16 21  2  0  0  0  0
 18 22  1  0  0  0  0
 18 30  1  0  0  0  0
 19 23  1  0  0  0  0
 19 31  1  0  0  0  0
 20 24  1  0  0  0  0
 20 32  1  0  0  0  0
 21 25  1  0  0  0  0
 21 33  1  0  0  0  0
 22 24  2  0  0  0  0
 22 35  1  0  0  0  0
 23 25  2  0  0  0  0
 23 36  1  0  0  0  0
 24 37  1  0  0  0  0
 25 38  1  0  0  0  0
M  END
> <PUBCHEM_COMPOUND_CID>
465921

> <PUBCHEM_CONFORMER_RMSD>
0.6

> <PUBCHEM_CONFORMER_DIVERSEORDER>
1

> <PUBCHEM_MMFF94_PARTIAL_CHARGES>
35
1 -0.68
10 -0.05
11 -0.05
12 0.72
15 -0.15
16 -0.15
17 0.54
18 -0.15
19 -0.15
2 -0.57
20 -0.15
21 -0.15
22 -0.15
23 -0.15
24 -0.15
25 -0.15
27 0.27
28 0.27
29 0.37
3 -0.05
30 0.15
31 0.15
32 0.15
33 0.15
34 0.4
35 0.15
36 0.15
37 0.15
38 0.15
4 -0.05
5 -0.73
6 -0.14
7 -0.01
8 -0.01
9 0.09

> <PUBCHEM_EFFECTIVE_ROTOR_COUNT>
0.4

> <PUBCHEM_PHARMACOPHORE_FEATURES>
14
1 1 acceptor
1 1 donor
1 2 acceptor
1 3 cation
1 3 donor
1 4 cation
1 4 donor
1 5 donor
5 3 7 10 13 15 rings
5 4 8 11 14 16 rings
5 5 6 9 12 17 rings
6 13 15 18 20 22 24 rings
6 14 16 19 21 23 25 rings
6 6 7 8 9 10 11 rings

> <PUBCHEM_HEAVY_ATOM_COUNT>
25

> <PUBCHEM_ATOM_DEF_STEREO_COUNT>
0

> <PUBCHEM_ATOM_UDEF_STEREO_COUNT>
1

> <PUBCHEM_BOND_DEF_STEREO_COUNT>
0

> <PUBCHEM_BOND_UDEF_STEREO_COUNT>
0

> <PUBCHEM_ISOTOPIC_ATOM_COUNT>
0

> <PUBCHEM_COMPONENT_COUNT>
1

> <PUBCHEM_CACTVS_TAUTO_COUNT>
15

> <PUBCHEM_CONFORMER_ID>
00071C0100000001

> <PUBCHEM_MMFF94_ENERGY>
92.4378

> <PUBCHEM_FEATURE_SELFOVERLAP>
71.558

> <PUBCHEM_SHAPE_FINGERPRINT>
10319926 262 18054771048707124664
10411042 1 17401485944774017027
10493431 412 18410292540308356176
10616163 171 18337674216788783747
10693767 8 17986385581732194542
10967382 1 18410292475820289890
1100329 8 18339360885011519640
11370993 70 18410292514517433944
11963148 33 18262232344016923323
12107183 9 17476927853056123617
12173636 292 18266455584730468412
12592029 89 18408887300181538738
12788726 201 17976811313935068978
13140716 1 18266461103473040050
13583140 156 16733526308559888089
138480 1 17761773966323383474
14787075 74 18201435921751525517
14790565 3 18410299111582549417
14866123 147 18338514256784530250
15042514 8 18120097440379095187
15131766 46 15866336111024799380
15196674 1 18410012134720583913
15664445 248 17481438075280198567
15927050 60 18411700997619282846
16087824 20 18267865159793077983
16752209 62 18123463041203123858
18681886 176 18408601483357596520
19591789 44 18410294704908303497
20510252 161 18126008406178433912
20739085 24 17904507128534064545
20775438 99 15466587960930988463
21033648 29 18340475742420918193
21197605 99 18337402642561354643
21236236 1 18268992170692657934
21267235 1 18410020935103259688
21307412 95 17914643621579571534
21478907 32 17835238231197509663
22182313 1 18266204827217790939
23227448 37 18341332291963552990
2334 1 17906173202040014442
23366157 5 17969789566122775154
23402539 116 18342734152214995941
23558518 356 17899979636319650200
23559900 14 18049716318031499699
283562 15 18049716613968167778
3091708 16 9264747187715617435
335352 9 18410293597692977846
338550 245 18334862740108205102
350125 39 18409168804996199128
352729 6 18338243789555076866
474 4 18338234869140261257
474229 33 18409167736013689561
5104073 3 18408324363044954665
5265222 85 18192727846121849460
5486654 2 18412267258997478229
59755656 215 18336831892097445420
6138700 20 18266182725975254398
6669772 16 18201445740215732542
7364860 26 18194683661714947555
8272917 22 18268150851387845365
9709674 26 18271251629049970420
9981440 41 18335420188108527755

> <PUBCHEM_SHAPE_MULTIPOLES>
487.81
9.61
4
0.64
0.09
3.45
-0.02
-7.17
-0.02
-0.11
-0.14
0.06
0.09
-0.3

> <PUBCHEM_SHAPE_SELFOVERLAP>
1147.303

> <PUBCHEM_SHAPE_VOLUME>
246.5

> <PUBCHEM_COORDINATE_TYPE>
2
5
10

$$$$
