49830575
  -OEChem-10052115193D

 35 38  0     0  0  0  0  0  0999 V2000
   -3.3589   -0.1471    2.5363 Cl  0  0  0  0  0  0  0  0  0  0  0  0
    2.0320    3.2929   -0.0307 O   0  0  0  0  0  0  0  0  0  0  0  0
    1.4739   -1.0173   -0.0732 N   0  0  0  0  0  0  0  0  0  0  0  0
    3.2588    1.4298   -0.0058 N   0  0  0  0  0  0  0  0  0  0  0  0
   -5.8847   -1.1334   -0.3666 N   0  0  0  0  0  0  0  0  0  0  0  0
    0.5013   -0.0142   -0.0948 C   0  0  0  0  0  0  0  0  0  0  0  0
    0.7245    1.3630   -0.0793 C   0  0  0  0  0  0  0  0  0  0  0  0
    2.8678   -1.0264   -0.0330 C   0  0  0  0  0  0  0  0  0  0  0  0
   -1.9331    0.3917   -0.1618 C   0  0  0  0  0  0  0  0  0  0  0  0
   -0.8428   -0.4731   -0.1363 C   0  0  0  0  0  0  0  0  0  0  0  0
    3.6852    0.0960   -0.0018 C   0  0  0  0  0  0  0  0  0  0  0  0
   -0.3987    2.2298   -0.1058 C   0  0  0  0  0  0  0  0  0  0  0  0
    2.0371    2.0552   -0.0375 C   0  0  0  0  0  0  0  0  0  0  0  0
   -1.7084    1.7535   -0.1465 C   0  0  0  0  0  0  0  0  0  0  0  0
   -3.2815   -0.1286   -0.2027 C   0  0  0  0  0  0  0  0  0  0  0  0
    3.4899   -2.3000   -0.0232 C   0  0  0  0  0  0  0  0  0  0  0  0
    5.0886   -0.0710    0.0377 C   0  0  0  0  0  0  0  0  0  0  0  0
    4.8743   -2.4554    0.0158 C   0  0  0  0  0  0  0  0  0  0  0  0
    5.6796   -1.3319    0.0463 C   0  0  0  0  0  0  0  0  0  0  0  0
   -3.9989   -0.4006    0.9569 C   0  0  0  0  0  0  0  0  0  0  0  0
   -3.8641   -0.3584   -1.4442 C   0  0  0  0  0  0  0  0  0  0  0  0
   -5.2854   -0.8973    0.8220 C   0  0  0  0  0  0  0  0  0  0  0  0
   -5.1565   -0.8572   -1.4716 C   0  0  0  0  0  0  0  0  0  0  0  0
    1.0767   -1.9535   -0.0912 H   0  0  0  0  0  0  0  0  0  0  0  0
   -1.0305   -1.5484   -0.1481 H   0  0  0  0  0  0  0  0  0  0  0  0
   -0.2789    3.3119   -0.0950 H   0  0  0  0  0  0  0  0  0  0  0  0
   -2.5315    2.4632   -0.1649 H   0  0  0  0  0  0  0  0  0  0  0  0
    4.0252    2.1003    0.0205 H   0  0  0  0  0  0  0  0  0  0  0  0
    2.8779   -3.2013   -0.0467 H   0  0  0  0  0  0  0  0  0  0  0  0
    5.7451    0.7980    0.0623 H   0  0  0  0  0  0  0  0  0  0  0  0
    5.3134   -3.4480    0.0221 H   0  0  0  0  0  0  0  0  0  0  0  0
    6.7601   -1.4298    0.0768 H   0  0  0  0  0  0  0  0  0  0  0  0
   -3.3388   -0.1597   -2.3731 H   0  0  0  0  0  0  0  0  0  0  0  0
   -5.8988   -1.1304    1.6873 H   0  0  0  0  0  0  0  0  0  0  0  0
   -5.6560   -1.0538   -2.4145 H   0  0  0  0  0  0  0  0  0  0  0  0
  1 20  1  0  0  0  0
  2 13  2  0  0  0  0
  3  6  1  0  0  0  0
  3  8  1  0  0  0  0
  3 24  1  0  0  0  0
  4 11  1  0  0  0  0
  4 13  1  0  0  0  0
  4 28  1  0  0  0  0
  5 22  2  0  0  0  0
  5 23  1  0  0  0  0
  6  7  2  0  0  0  0
  6 10  1  0  0  0  0
  7 12  1  0  0  0  0
  7 13  1  0  0  0  0
  8 11  1  0  0  0  0
  8 16  2  0  0  0  0
  9 10  2  0  0  0  0
  9 14  1  0  0  0  0
  9 15  1  0  0  0  0
 10 25  1  0  0  0  0
 11 17  2  0  0  0  0
 12 14  2  0  0  0  0
 12 26  1  0  0  0  0
 14 27  1  0  0  0  0
 15 20  2  0  0  0  0
 15 21  1  0  0  0  0
 16 18  1  0  0  0  0
 16 29  1  0  0  0  0
 17 19  1  0  0  0  0
 17 30  1  0  0  0  0
 18 19  2  0  0  0  0
 18 31  1  0  0  0  0
 19 32  1  0  0  0  0
 20 22  1  0  0  0  0
 21 23  2  0  0  0  0
 21 33  1  0  0  0  0
 22 34  1  0  0  0  0
 23 35  1  0  0  0  0
M  END
> <PUBCHEM_COMPOUND_CID>
49830575

> <PUBCHEM_CONFORMER_RMSD>
0.6

> <PUBCHEM_CONFORMER_DIVERSEORDER>
1
3
5
4
2
6

> <PUBCHEM_MMFF94_PARTIAL_CHARGES>
33
1 -0.18
10 -0.15
11 0.12
12 -0.15
13 0.54
14 -0.15
16 -0.15
17 -0.15
18 -0.15
19 -0.15
2 -0.57
20 0.18
21 -0.15
22 0.16
23 0.16
24 0.4
25 0.15
26 0.15
27 0.15
28 0.37
29 0.15
3 -0.6
30 0.15
31 0.15
32 0.15
33 0.15
34 0.15
35 0.15
4 -0.55
5 -0.62
6 0.1
7 0.09
8 0.1

> <PUBCHEM_EFFECTIVE_ROTOR_COUNT>
1.4

> <PUBCHEM_PHARMACOPHORE_FEATURES>
9
1 2 acceptor
1 3 cation
1 3 donor
1 4 donor
1 5 acceptor
6 5 15 20 21 22 23 rings
6 6 7 9 10 12 14 rings
6 8 11 16 17 18 19 rings
7 3 4 6 7 8 11 13 rings

> <PUBCHEM_HEAVY_ATOM_COUNT>
23

> <PUBCHEM_ATOM_DEF_STEREO_COUNT>
0

> <PUBCHEM_ATOM_UDEF_STEREO_COUNT>
0

> <PUBCHEM_BOND_DEF_STEREO_COUNT>
0

> <PUBCHEM_BOND_UDEF_STEREO_COUNT>
0

> <PUBCHEM_ISOTOPIC_ATOM_COUNT>
0

> <PUBCHEM_COMPONENT_COUNT>
1

> <PUBCHEM_CACTVS_TAUTO_COUNT>
7

> <PUBCHEM_CONFORMER_ID>
02F85AAF00000001

> <PUBCHEM_MMFF94_ENERGY>
100.9036

> <PUBCHEM_FEATURE_SELFOVERLAP>
45.684

> <PUBCHEM_SHAPE_FINGERPRINT>
10366900 7 17821446841795404611
11595378 159 15482396343771515394
11796584 16 17240199945478103195
12107183 9 18199198282777487681
12236239 1 17846781836394455515
12516196 113 18412260627514816410
12596602 18 17131830975859581530
12616971 3 18131074865876096573
12760667 363 18410012091981875154
13140716 1 18123748931469485992
13533116 47 18200592609001489809
13544653 18 18335988583837633244
13685833 64 18334580157362650539
13782708 43 17604436318491196315
13862211 1 18410289182234910806
13911852 28 18267583512020487318
13955234 65 18197213857167397136
14386348 63 17894634781332026251
14739800 52 16486119772840350688
14767858 380 18262252070932368102
14849402 71 17274249682546062576
15188451 53 16630230494640503871
15196674 1 18338796711356201380
15352361 1 18409728430987857222
15788980 27 18409728452388795391
15927050 60 17837772593073093436
17349148 13 17988928885497578783
17492 89 18050002195804246194
17857418 61 18344142596555760375
17870717 6 16950002539399271427
1813 80 18271821081135705964
18222031 100 18341039753473029274
200 152 18342172263350215229
20028762 73 18131064948185759486
20645477 70 18261386801492375732
21033648 29 17895179039645966677
21267235 1 18340492180024916598
21315764 119 15430587355918306458
21682296 61 18341055103602158470
221490 88 18407759222747791396
22182313 1 18190153802710985364
22393880 68 17821998840210312707
23175994 123 18040720281671301517
23402539 116 18340202999153995479
23522609 53 18125473914705676768
23559900 14 17458064897530305501
25147074 1 18270415935335475745
2871803 45 18186516583986069314
314194 84 18411419501283305866
3421961 26 18411417341078286432
345986 75 18060135393063405800
34797466 226 16443633509803243741
4015057 19 18335418032472677601
46194498 28 17531243998013852468
465052 167 18342461460446399222
5104073 3 18269267964097400368
5283173 99 17895746293214796965
7970288 3 18339356358190440302
8863177 126 17969514873443277091

> <PUBCHEM_SHAPE_MULTIPOLES>
454.39
13.1
2.48
1.2
1.25
1.31
-0.54
-8.57
0.32
-2.87
0.12
2.3
-0.25
-0.18

> <PUBCHEM_SHAPE_SELFOVERLAP>
1011.021

> <PUBCHEM_SHAPE_VOLUME>
239.6

> <PUBCHEM_COORDINATE_TYPE>
2
5
10

$$$$
