136027083
  -OEChem-10052120443D

 47 51  0     1  0  0  0  0  0999 V2000
    6.7441    0.5832   -0.6357 Cl  0  0  0  0  0  0  0  0  0  0  0  0
   -0.2752   -3.0332    0.4871 O   0  0  0  0  0  0  0  0  0  0  0  0
   -2.5071    0.7810    1.2018 N   0  0  0  0  0  0  0  0  0  0  0  0
   -1.1867    0.5458    1.3944 N   0  0  0  0  0  0  0  0  0  0  0  0
    1.9699   -2.7851    0.1657 N   0  0  0  0  0  0  0  0  0  0  0  0
   -2.9329    0.4401   -0.1601 C   0  0  1  0  0  0  0  0  0  0  0  0
   -1.9083   -0.6269   -0.5262 C   0  0  0  0  0  0  0  0  0  0  0  0
   -0.8252   -0.2562    0.4448 C   0  0  0  0  0  0  0  0  0  0  0  0
    0.5255   -0.8016    0.2826 C   0  0  0  0  0  0  0  0  0  0  0  0
    1.5883    0.0214    0.1002 C   0  0  0  0  0  0  0  0  0  0  0  0
   -4.3673   -0.0102   -0.2546 C   0  0  0  0  0  0  0  0  0  0  0  0
    2.9415   -0.5840   -0.0619 C   0  0  0  0  0  0  0  0  0  0  0  0
    0.6961   -2.2955    0.3218 C   0  0  0  0  0  0  0  0  0  0  0  0
    3.0920   -1.9731   -0.0236 C   0  0  0  0  0  0  0  0  0  0  0  0
    1.3709    1.4723    0.0700 C   0  0  0  0  0  0  0  0  0  0  0  0
   -5.0688    0.1410   -1.4506 C   0  0  0  0  0  0  0  0  0  0  0  0
   -4.9939   -0.5784    0.8544 C   0  0  0  0  0  0  0  0  0  0  0  0
    4.0933    0.1969   -0.2549 C   0  0  0  0  0  0  0  0  0  0  0  0
    4.3467   -2.5751   -0.1711 C   0  0  0  0  0  0  0  0  0  0  0  0
    1.1022    2.1122   -1.1399 C   0  0  0  0  0  0  0  0  0  0  0  0
    1.4330    2.2114    1.2512 C   0  0  0  0  0  0  0  0  0  0  0  0
    5.3493   -0.3990   -0.4025 C   0  0  0  0  0  0  0  0  0  0  0  0
   -6.3972   -0.2760   -1.5378 C   0  0  0  0  0  0  0  0  0  0  0  0
   -6.3221   -0.9954    0.7674 C   0  0  0  0  0  0  0  0  0  0  0  0
    5.4761   -1.7841   -0.3602 C   0  0  0  0  0  0  0  0  0  0  0  0
   -7.0238   -0.8442   -0.4287 C   0  0  0  0  0  0  0  0  0  0  0  0
    0.8955    3.4915   -1.1687 C   0  0  0  0  0  0  0  0  0  0  0  0
    1.2264    3.5906    1.2225 C   0  0  0  0  0  0  0  0  0  0  0  0
    0.9576    4.2306    0.0126 C   0  0  0  0  0  0  0  0  0  0  0  0
   -2.7811    1.3270   -0.7905 H   0  0  0  0  0  0  0  0  0  0  0  0
   -1.5651   -0.5410   -1.5608 H   0  0  0  0  0  0  0  0  0  0  0  0
   -2.2605   -1.6429   -0.3242 H   0  0  0  0  0  0  0  0  0  0  0  0
   -2.7554    1.7333    1.4616 H   0  0  0  0  0  0  0  0  0  0  0  0
    2.1067   -3.7917    0.1892 H   0  0  0  0  0  0  0  0  0  0  0  0
   -4.5903    0.5805   -2.3218 H   0  0  0  0  0  0  0  0  0  0  0  0
   -4.4736   -0.7259    1.7965 H   0  0  0  0  0  0  0  0  0  0  0  0
    4.0256    1.2820   -0.2919 H   0  0  0  0  0  0  0  0  0  0  0  0
    4.4524   -3.6564   -0.1394 H   0  0  0  0  0  0  0  0  0  0  0  0
    1.0500    1.5500   -2.0691 H   0  0  0  0  0  0  0  0  0  0  0  0
    1.6438    1.7282    2.2022 H   0  0  0  0  0  0  0  0  0  0  0  0
   -6.9432   -0.1589   -2.4693 H   0  0  0  0  0  0  0  0  0  0  0  0
   -6.8094   -1.4413    1.6296 H   0  0  0  0  0  0  0  0  0  0  0  0
    6.4464   -2.2603   -0.4733 H   0  0  0  0  0  0  0  0  0  0  0  0
   -8.0577   -1.1698   -0.4967 H   0  0  0  0  0  0  0  0  0  0  0  0
    0.6860    3.9897   -2.1107 H   0  0  0  0  0  0  0  0  0  0  0  0
    1.2750    4.1663    2.1422 H   0  0  0  0  0  0  0  0  0  0  0  0
    0.7966    5.3044   -0.0096 H   0  0  0  0  0  0  0  0  0  0  0  0
  1 22  1  0  0  0  0
  2 13  2  0  0  0  0
  3  4  1  0  0  0  0
  3  6  1  0  0  0  0
  3 33  1  0  0  0  0
  4  8  2  0  0  0  0
  5 13  1  0  0  0  0
  5 14  1  0  0  0  0
  5 34  1  0  0  0  0
  6  7  1  0  0  0  0
  6 11  1  0  0  0  0
  6 30  1  0  0  0  0
  7  8  1  0  0  0  0
  7 31  1  0  0  0  0
  7 32  1  0  0  0  0
  8  9  1  0  0  0  0
  9 10  2  0  0  0  0
  9 13  1  0  0  0  0
 10 12  1  0  0  0  0
 10 15  1  0  0  0  0
 11 16  2  0  0  0  0
 11 17  1  0  0  0  0
 12 14  2  0  0  0  0
 12 18  1  0  0  0  0
 14 19  1  0  0  0  0
 15 20  2  0  0  0  0
 15 21  1  0  0  0  0
 16 23  1  0  0  0  0
 16 35  1  0  0  0  0
 17 24  2  0  0  0  0
 17 36  1  0  0  0  0
 18 22  2  0  0  0  0
 18 37  1  0  0  0  0
 19 25  2  0  0  0  0
 19 38  1  0  0  0  0
 20 27  1  0  0  0  0
 20 39  1  0  0  0  0
 21 28  2  0  0  0  0
 21 40  1  0  0  0  0
 22 25  1  0  0  0  0
 23 26  2  0  0  0  0
 23 41  1  0  0  0  0
 24 26  1  0  0  0  0
 24 42  1  0  0  0  0
 25 43  1  0  0  0  0
 26 44  1  0  0  0  0
 27 29  2  0  0  0  0
 27 45  1  0  0  0  0
 28 29  1  0  0  0  0
 28 46  1  0  0  0  0
 29 47  1  0  0  0  0
M  END
> <PUBCHEM_COMPOUND_CID>
136027083

> <PUBCHEM_CONFORMER_RMSD>
0.8

> <PUBCHEM_CONFORMER_DIVERSEORDER>
1
3
7
6
5
8
9
2
4
10

> <PUBCHEM_MMFF94_PARTIAL_CHARGES>
44
1 -0.18
10 -0.06
11 -0.14
12 0.03
13 0.62
14 0.12
15 0.03
16 -0.15
17 -0.15
18 -0.15
19 -0.15
2 -0.57
20 -0.15
21 -0.15
22 0.18
23 -0.15
24 -0.15
25 -0.15
26 -0.15
27 -0.15
28 -0.15
29 -0.15
3 -0.58
33 0.36
34 0.37
35 0.15
36 0.15
37 0.15
38 0.15
39 0.15
4 -0.5
40 0.15
41 0.15
42 0.15
43 0.15
44 0.15
45 0.15
46 0.15
47 0.15
5 -0.55
6 0.41
7 0.06
8 0.37
9 0.03

> <PUBCHEM_EFFECTIVE_ROTOR_COUNT>
3.6

> <PUBCHEM_PHARMACOPHORE_FEATURES>
9
1 2 acceptor
1 3 donor
1 4 acceptor
1 5 donor
5 3 4 6 7 8 rings
6 11 16 17 23 24 26 rings
6 12 14 18 19 22 25 rings
6 15 20 21 27 28 29 rings
6 5 9 10 12 13 14 rings

> <PUBCHEM_HEAVY_ATOM_COUNT>
29

> <PUBCHEM_ATOM_DEF_STEREO_COUNT>
0

> <PUBCHEM_ATOM_UDEF_STEREO_COUNT>
1

> <PUBCHEM_BOND_DEF_STEREO_COUNT>
0

> <PUBCHEM_BOND_UDEF_STEREO_COUNT>
0

> <PUBCHEM_ISOTOPIC_ATOM_COUNT>
0

> <PUBCHEM_COMPONENT_COUNT>
1

> <PUBCHEM_CACTVS_TAUTO_COUNT>
-1

> <PUBCHEM_CONFORMER_ID>
081B9BCB00000001

> <PUBCHEM_MMFF94_ENERGY>
95.387

> <PUBCHEM_FEATURE_SELFOVERLAP>
45.699

> <PUBCHEM_SHAPE_FINGERPRINT>
10076449 9 18343587326805561836
10673678 19 17460053970485227020
10930396 42 18190997124793988704
1100329 8 18339928237206114618
11315621 136 18268984470481474015
11497681 19 18059301934018697830
11607047 74 16843020177948931025
11646440 116 18412831287171657912
12035758 1 18264751311959311784
12166972 35 18201719570071320209
12236239 1 18060422378541471067
12516196 113 18412262818148402526
12616971 3 17846504764302496811
12788726 201 18264487287645357378
12838862 33 18337661015035151468
13402501 40 18186238429124839951
13590594 115 18341331115512382857
13911987 19 18188227437254305206
14068700 675 17988922262547479369
14170010 4 18340766034864578265
14849402 71 18339933717811510585
14955137 171 18412834585416780210
15439362 3 18194398020605084036
15849732 13 18060420226667702860
15927050 60 17838055162897075940
16988056 13 18262225707680443541
17492 54 18334306378966911982
1813 80 18129954381316444205
18365409 1 17058921350409677478
18681886 176 18342731949149980651
21049683 271 18335146422498249948
21267235 1 18271533004921251182
21285901 2 18041556941026087350
21641784 216 18043831805099430756
221357 26 18334570222908057845
23559900 14 18335136536057975843
24771293 8 18201432606379619536
24771750 20 17974301111772291092
249057 3 18412823612529654807
283562 15 18192716640245868066
3178227 256 18336277811774048315
335352 9 18409174303868349406
350125 39 18047766067539630130
4015057 19 18337955696993904955
46194498 28 17822009847757792805
484989 97 18193283111904336243
6004065 56 18411978100455500754
6669772 16 18126278881628504216
6823239 73 16878225355033333509
70251023 43 18196374724064254378
7471813 234 18131067130419035281

> <PUBCHEM_SHAPE_MULTIPOLES>
577.86
14.69
3.84
1.18
14.86
3.34
0.05
-7.28
4.13
-4.24
-0.34
0.99
0.54
0.25

> <PUBCHEM_SHAPE_SELFOVERLAP>
1287.338

> <PUBCHEM_SHAPE_VOLUME>
307.4

> <PUBCHEM_COORDINATE_TYPE>
2
5
10

$$$$
