49830604
  -OEChem-10052115183D

 57 60  0     0  0  0  0  0  0999 V2000
    2.0224   -4.6606    0.5517 F   0  0  0  0  0  0  0  0  0  0  0  0
    4.5412   -0.0939    0.1954 N   0  0  0  0  0  0  0  0  0  0  0  0
    2.0891    2.0132    0.3002 N   0  0  0  0  0  0  0  0  0  0  0  0
   -0.0560    1.1212    0.2821 N   0  0  0  0  0  0  0  0  0  0  0  0
   -3.4378    0.6704   -0.1674 N   0  0  0  0  0  0  0  0  0  0  0  0
    0.7233    2.4647    2.1247 N   0  0  0  0  0  0  0  0  0  0  0  0
   -3.3663   -1.4624   -0.8259 N   0  0  0  0  0  0  0  0  0  0  0  0
   -6.0015    1.0053   -1.2074 N   0  0  0  0  0  0  0  0  0  0  0  0
    3.8650    1.7343   -1.4149 C   0  0  0  0  0  0  0  0  0  0  0  0
    4.9092    1.1864   -0.4031 C   0  0  0  0  0  0  0  0  0  0  0  0
    2.4080    1.4314   -0.9837 C   0  0  0  0  0  0  0  0  0  0  0  0
    4.0710    3.2591   -1.5419 C   0  0  0  0  0  0  0  0  0  0  0  0
    4.0918    1.1121   -2.8094 C   0  0  0  0  0  0  0  0  0  0  0  0
    4.8388   -1.1940   -0.7222 C   0  0  0  0  0  0  0  0  0  0  0  0
    5.2413   -0.2866    1.4657 C   0  0  0  0  0  0  0  0  0  0  0  0
    0.8652    1.8596    0.9300 C   0  0  0  0  0  0  0  0  0  0  0  0
   -2.2171    0.2027    0.2280 C   0  0  0  0  0  0  0  0  0  0  0  0
   -1.2359    0.9922    0.9236 C   0  0  0  0  0  0  0  0  0  0  0  0
   -2.1966   -1.1131   -0.1889 C   0  0  0  0  0  0  0  0  0  0  0  0
   -4.0835   -0.3663   -0.7924 C   0  0  0  0  0  0  0  0  0  0  0  0
   -1.5076    1.5616    2.1509 C   0  0  0  0  0  0  0  0  0  0  0  0
   -1.1098   -2.0269    0.0020 C   0  0  0  0  0  0  0  0  0  0  0  0
   -0.4804    2.2944    2.7098 C   0  0  0  0  0  0  0  0  0  0  0  0
   -4.0647    1.8971   -0.0511 C   0  0  0  0  0  0  0  0  0  0  0  0
   -5.4040   -0.1512   -1.3143 C   0  0  0  0  0  0  0  0  0  0  0  0
   -0.6764   -2.3357    1.2913 C   0  0  0  0  0  0  0  0  0  0  0  0
   -0.4853   -2.6080   -1.1017 C   0  0  0  0  0  0  0  0  0  0  0  0
   -5.3038    2.0222   -0.5656 C   0  0  0  0  0  0  0  0  0  0  0  0
    0.3817   -3.2253    1.4771 C   0  0  0  0  0  0  0  0  0  0  0  0
    0.5727   -3.4976   -0.9160 C   0  0  0  0  0  0  0  0  0  0  0  0
    1.0063   -3.8062    0.3734 C   0  0  0  0  0  0  0  0  0  0  0  0
    5.9143    1.1602   -0.8465 H   0  0  0  0  0  0  0  0  0  0  0  0
    4.9812    1.9265    0.4067 H   0  0  0  0  0  0  0  0  0  0  0  0
    1.7225    1.8408   -1.7379 H   0  0  0  0  0  0  0  0  0  0  0  0
    2.2288    0.3494   -0.9599 H   0  0  0  0  0  0  0  0  0  0  0  0
    5.0708    3.4846   -1.9311 H   0  0  0  0  0  0  0  0  0  0  0  0
    3.3411    3.7013   -2.2297 H   0  0  0  0  0  0  0  0  0  0  0  0
    3.9727    3.7756   -0.5815 H   0  0  0  0  0  0  0  0  0  0  0  0
    5.1548    1.0915   -3.0729 H   0  0  0  0  0  0  0  0  0  0  0  0
    3.5815    1.7037   -3.5799 H   0  0  0  0  0  0  0  0  0  0  0  0
    3.6908    0.1021   -2.9042 H   0  0  0  0  0  0  0  0  0  0  0  0
    2.7868    2.5496    0.8015 H   0  0  0  0  0  0  0  0  0  0  0  0
    5.8426   -1.1283   -1.1566 H   0  0  0  0  0  0  0  0  0  0  0  0
    4.7726   -2.1559   -0.1980 H   0  0  0  0  0  0  0  0  0  0  0  0
    4.0977   -1.2705   -1.5170 H   0  0  0  0  0  0  0  0  0  0  0  0
    4.9418   -1.2318    1.9325 H   0  0  0  0  0  0  0  0  0  0  0  0
    6.3300   -0.2928    1.3395 H   0  0  0  0  0  0  0  0  0  0  0  0
    4.9783    0.5038    2.1779 H   0  0  0  0  0  0  0  0  0  0  0  0
   -2.4556    1.4459    2.6613 H   0  0  0  0  0  0  0  0  0  0  0  0
   -0.5999    2.7778    3.6734 H   0  0  0  0  0  0  0  0  0  0  0  0
   -3.5492    2.7141    0.4361 H   0  0  0  0  0  0  0  0  0  0  0  0
   -5.9231   -0.9830   -1.8162 H   0  0  0  0  0  0  0  0  0  0  0  0
   -1.1542   -1.9015    2.1663 H   0  0  0  0  0  0  0  0  0  0  0  0
   -0.8092   -2.3768   -2.1138 H   0  0  0  0  0  0  0  0  0  0  0  0
   -5.8258    2.9706   -0.4958 H   0  0  0  0  0  0  0  0  0  0  0  0
    0.7186   -3.4671    2.4807 H   0  0  0  0  0  0  0  0  0  0  0  0
    1.0601   -3.9494   -1.7749 H   0  0  0  0  0  0  0  0  0  0  0  0
  1 31  1  0  0  0  0
  2 10  1  0  0  0  0
  2 14  1  0  0  0  0
  2 15  1  0  0  0  0
  3 11  1  0  0  0  0
  3 16  1  0  0  0  0
  3 42  1  0  0  0  0
  4 16  1  0  0  0  0
  4 18  2  0  0  0  0
  5 17  1  0  0  0  0
  5 20  1  0  0  0  0
  5 24  1  0  0  0  0
  6 16  2  0  0  0  0
  6 23  1  0  0  0  0
  7 19  1  0  0  0  0
  7 20  2  0  0  0  0
  8 25  2  0  0  0  0
  8 28  1  0  0  0  0
  9 10  1  0  0  0  0
  9 11  1  0  0  0  0
  9 12  1  0  0  0  0
  9 13  1  0  0  0  0
 10 32  1  0  0  0  0
 10 33  1  0  0  0  0
 11 34  1  0  0  0  0
 11 35  1  0  0  0  0
 12 36  1  0  0  0  0
 12 37  1  0  0  0  0
 12 38  1  0  0  0  0
 13 39  1  0  0  0  0
 13 40  1  0  0  0  0
 13 41  1  0  0  0  0
 14 43  1  0  0  0  0
 14 44  1  0  0  0  0
 14 45  1  0  0  0  0
 15 46  1  0  0  0  0
 15 47  1  0  0  0  0
 15 48  1  0  0  0  0
 17 18  1  0  0  0  0
 17 19  2  0  0  0  0
 18 21  1  0  0  0  0
 19 22  1  0  0  0  0
 20 25  1  0  0  0  0
 21 23  2  0  0  0  0
 21 49  1  0  0  0  0
 22 26  2  0  0  0  0
 22 27  1  0  0  0  0
 23 50  1  0  0  0  0
 24 28  2  0  0  0  0
 24 51  1  0  0  0  0
 25 52  1  0  0  0  0
 26 29  1  0  0  0  0
 26 53  1  0  0  0  0
 27 30  2  0  0  0  0
 27 54  1  0  0  0  0
 28 55  1  0  0  0  0
 29 31  2  0  0  0  0
 29 56  1  0  0  0  0
 30 31  1  0  0  0  0
 30 57  1  0  0  0  0
M  END
> <PUBCHEM_COMPOUND_CID>
49830604

> <PUBCHEM_CONFORMER_RMSD>
1

> <PUBCHEM_CONFORMER_DIVERSEORDER>
3
220
45
52
122
152
67
203
135
116
51
148
192
56
182
68
87
126
8
1
83
146
188
189
49
5
159
153
166
108
133
165
223
229
177
173
212
22
111
57
204
81
13
198
228
169
236
184
74
158
141
191
95
168
96
209
180
201
75
70
103
183
171
50
144
174
202
14
238
89
142
105
109
58
21
206
86
197
79
46
154
164
190
195
27
121
172
10
237
157
120
156
24
207
61
100
178
17
186
210
219
137
110
155
43
102
48
77
34
208
175
80
115
167
124
138
232
199
41
59
162
147
221
92
127
53
227
140
150
60
205
218
131
114
20
129
151
32
134
72
170
104
40
194
4
76
214
64
35
44
66
181
101
90
16
69
161
234
37
106
91
93
28
25
117
30
2
193
78
132
185
15
39
139
94
107
160
26
136
216
97
239
176
11
47
82
211
63
213
18
143
225
9
73
23
196
12
119
200
71
231
163
125
240
42
33
179
123
233
99
29
54
217
38
113
226
55
85
128
130
19
222
230
215
98
145
31
36
149
88
241
7
6
65
62
224
118
235
112
187
84

> <PUBCHEM_MMFF94_PARTIAL_CHARGES>
38
1 -0.19
10 0.27
11 0.37
14 0.27
15 0.27
16 0.72
17 -0.2
18 0.36
19 0.17
2 -0.81
20 0.1
21 -0.15
22 0.05
23 0.16
24 -0.18
25 0.47
26 -0.15
27 -0.15
28 0.02
29 -0.15
3 -0.87
30 -0.15
31 0.19
4 -0.62
42 0.4
49 0.15
5 0.33
50 0.15
51 0.15
52 0.06
53 0.15
54 0.15
55 0.15
56 0.15
57 0.15
6 -0.62
7 -0.57
8 -0.62

> <PUBCHEM_EFFECTIVE_ROTOR_COUNT>
7

> <PUBCHEM_PHARMACOPHORE_FEATURES>
11
1 2 cation
1 3 donor
1 4 acceptor
1 8 acceptor
3 5 7 20 cation
3 9 12 13 hydrophobe
4 3 4 6 16 cation
5 5 7 17 19 20 rings
6 22 26 27 29 30 31 rings
6 4 6 16 18 21 23 rings
6 5 8 20 24 25 28 rings

> <PUBCHEM_HEAVY_ATOM_COUNT>
31

> <PUBCHEM_ATOM_DEF_STEREO_COUNT>
0

> <PUBCHEM_ATOM_UDEF_STEREO_COUNT>
0

> <PUBCHEM_BOND_DEF_STEREO_COUNT>
0

> <PUBCHEM_BOND_UDEF_STEREO_COUNT>
0

> <PUBCHEM_ISOTOPIC_ATOM_COUNT>
0

> <PUBCHEM_COMPONENT_COUNT>
1

> <PUBCHEM_CACTVS_TAUTO_COUNT>
3

> <PUBCHEM_CONFORMER_ID>
02F85ACC00000003

> <PUBCHEM_MMFF94_ENERGY>
98.1216

> <PUBCHEM_FEATURE_SELFOVERLAP>
55.941

> <PUBCHEM_SHAPE_FINGERPRINT>
10190108 129 18122911095726723691
10675989 125 18412829070953501040
107951 10 17604148241463910363
11578080 2 17679614210664407385
11595378 159 9583254824700120072
12035759 4 18129102230019734251
12156800 1 14400344024631812838
12363563 72 17059232477761678508
12553582 1 17772214126072171824
12788726 201 17916603032350790720
133893 2 18048052778118138257
14713325 29 18042415788862554827
14747281 78 16227477078608960796
15183329 4 18409167714323147333
15420108 30 17047126524454365432
15775530 1 17266370736275836721
20642791 178 18334846204405364539
20715895 44 18335415738443053492
21133410 230 17753647759482806251
21781051 124 18263923418701329579
23366157 5 18116420459021695523
23559900 14 17987793158896071672
27425 322 16371009679813818173
3004659 81 18410573985863958604
3027735 51 18266462005553867684
3298306 158 18412260649079401751
340366 18 17967534609993534860
3633792 109 18411140204171668724
4015057 19 17273709843184335096
5265222 85 18265337394411481708
6138700 20 18340483366324828606
6287921 2 17554613889934447114
6669772 16 17843662590146098649

> <PUBCHEM_SHAPE_MULTIPOLES>
595.82
11.11
4.74
2.11
0.98
4.98
0.48
-6.47
-6.17
-2.27
0.73
-1.05
-1.23
-1.48

> <PUBCHEM_SHAPE_SELFOVERLAP>
1293.701

> <PUBCHEM_SHAPE_VOLUME>
329.7

> <PUBCHEM_COORDINATE_TYPE>
2
5
10

$$$$
