5283685
  -OEChem-10062122013D

 71 73  0     1  0  0  0  0  0999 V2000
    2.1290   -3.5863   -0.9179 O   0  0  0  0  0  0  0  0  0  0  0  0
    7.2677    0.8320   -1.2028 O   0  0  0  0  0  0  0  0  0  0  0  0
   -1.3059   -1.9208    0.1696 C   0  0  1  0  0  0  0  0  0  0  0  0
   -0.0683   -1.1346    0.6562 C   0  0  1  0  0  0  0  0  0  0  0  0
   -2.4136   -0.8964    0.5189 C   0  0  2  0  0  0  0  0  0  0  0  0
   -0.4855   -0.5835    2.0193 C   0  0  0  0  0  0  0  0  0  0  0  0
   -2.0022   -0.3619    1.9059 C   0  0  0  0  0  0  0  0  0  0  0  0
    1.2117   -1.9693    0.6133 C   0  0  1  0  0  0  0  0  0  0  0  0
   -1.1598   -2.2035   -1.3394 C   0  0  0  0  0  0  0  0  0  0  0  0
   -3.8472   -1.4056    0.4820 C   0  0  1  0  0  0  0  0  0  0  0  0
   -1.5119   -3.2634    0.9140 C   0  0  0  0  0  0  0  0  0  0  0  0
    0.2978   -2.3195   -1.8077 C   0  0  0  0  0  0  0  0  0  0  0  0
    1.2729   -2.7241   -0.7146 C   0  0  0  0  0  0  0  0  0  0  0  0
    2.4582   -1.1083    0.7812 C   0  0  0  0  0  0  0  0  0  0  0  0
   -4.8798   -0.3081    0.8142 C   0  0  0  0  0  0  0  0  0  0  0  0
   -4.1611   -1.9920   -0.9003 C   0  0  0  0  0  0  0  0  0  0  0  0
    2.5545   -0.0573   -0.3216 C   0  0  0  0  0  0  0  0  0  0  0  0
   -4.8472    0.9392   -0.0792 C   0  0  0  0  0  0  0  0  0  0  0  0
   -5.8438    2.0220    0.3467 C   0  0  0  0  0  0  0  0  0  0  0  0
    3.7746    0.8112   -0.1504 C   0  0  0  0  0  0  0  0  0  0  0  0
   -5.8603    3.2437   -0.5928 C   0  0  0  0  0  0  0  0  0  0  0  0
    3.7083    1.9768    0.5999 C   0  0  0  0  0  0  0  0  0  0  0  0
    4.9594    0.4181   -0.7574 C   0  0  0  0  0  0  0  0  0  0  0  0
   -6.1718    2.8660   -2.0418 C   0  0  0  0  0  0  0  0  0  0  0  0
   -4.5109    3.9643   -0.5285 C   0  0  0  0  0  0  0  0  0  0  0  0
    4.8496    2.7652    0.7463 C   0  0  0  0  0  0  0  0  0  0  0  0
    6.1006    1.2067   -0.6111 C   0  0  0  0  0  0  0  0  0  0  0  0
    2.4391    2.4094    1.2572 C   0  0  0  0  0  0  0  0  0  0  0  0
    6.0457    2.3802    0.1408 C   0  0  0  0  0  0  0  0  0  0  0  0
    0.0100   -0.2714   -0.0136 H   0  0  0  0  0  0  0  0  0  0  0  0
   -2.3107   -0.0653   -0.1922 H   0  0  0  0  0  0  0  0  0  0  0  0
   -0.2679   -1.2930    2.8257 H   0  0  0  0  0  0  0  0  0  0  0  0
    0.0351    0.3495    2.2547 H   0  0  0  0  0  0  0  0  0  0  0  0
   -2.5112   -0.8930    2.7185 H   0  0  0  0  0  0  0  0  0  0  0  0
   -2.2494    0.7009    2.0036 H   0  0  0  0  0  0  0  0  0  0  0  0
    1.1921   -2.7235    1.4095 H   0  0  0  0  0  0  0  0  0  0  0  0
   -1.6685   -3.1348   -1.6133 H   0  0  0  0  0  0  0  0  0  0  0  0
   -1.6234   -1.4120   -1.9393 H   0  0  0  0  0  0  0  0  0  0  0  0
   -3.9889   -2.1993    1.2261 H   0  0  0  0  0  0  0  0  0  0  0  0
   -1.5909   -3.1295    1.9974 H   0  0  0  0  0  0  0  0  0  0  0  0
   -2.4178   -3.7814    0.5863 H   0  0  0  0  0  0  0  0  0  0  0  0
   -0.6867   -3.9598    0.7344 H   0  0  0  0  0  0  0  0  0  0  0  0
    0.3619   -3.0449   -2.6267 H   0  0  0  0  0  0  0  0  0  0  0  0
    0.6336   -1.3584   -2.2123 H   0  0  0  0  0  0  0  0  0  0  0  0
    2.4485   -0.6361    1.7703 H   0  0  0  0  0  0  0  0  0  0  0  0
    3.3514   -1.7465    0.7580 H   0  0  0  0  0  0  0  0  0  0  0  0
   -5.8873   -0.7428    0.7743 H   0  0  0  0  0  0  0  0  0  0  0  0
   -4.7386    0.0062    1.8560 H   0  0  0  0  0  0  0  0  0  0  0  0
   -3.8642   -1.3261   -1.7158 H   0  0  0  0  0  0  0  0  0  0  0  0
   -5.2404   -2.1583   -1.0032 H   0  0  0  0  0  0  0  0  0  0  0  0
   -3.7076   -2.9727   -1.0483 H   0  0  0  0  0  0  0  0  0  0  0  0
    2.6271   -0.5419   -1.3031 H   0  0  0  0  0  0  0  0  0  0  0  0
    1.6820    0.5917   -0.3956 H   0  0  0  0  0  0  0  0  0  0  0  0
   -5.0514    0.6288   -1.1079 H   0  0  0  0  0  0  0  0  0  0  0  0
   -3.8433    1.3697   -0.0603 H   0  0  0  0  0  0  0  0  0  0  0  0
   -6.8509    1.5872    0.3735 H   0  0  0  0  0  0  0  0  0  0  0  0
   -5.6176    2.3471    1.3698 H   0  0  0  0  0  0  0  0  0  0  0  0
   -6.6382    3.9301   -0.2360 H   0  0  0  0  0  0  0  0  0  0  0  0
    5.0095   -0.4967   -1.3424 H   0  0  0  0  0  0  0  0  0  0  0  0
   -5.3565    2.3092   -2.5141 H   0  0  0  0  0  0  0  0  0  0  0  0
   -7.0834    2.2623   -2.1000 H   0  0  0  0  0  0  0  0  0  0  0  0
   -6.3336    3.7696   -2.6400 H   0  0  0  0  0  0  0  0  0  0  0  0
   -4.2334    4.1898    0.5066 H   0  0  0  0  0  0  0  0  0  0  0  0
   -4.5671    4.9160   -1.0687 H   0  0  0  0  0  0  0  0  0  0  0  0
   -3.7032    3.3827   -0.9838 H   0  0  0  0  0  0  0  0  0  0  0  0
    4.8244    3.6828    1.3281 H   0  0  0  0  0  0  0  0  0  0  0  0
    2.0721    1.6458    1.9477 H   0  0  0  0  0  0  0  0  0  0  0  0
    2.5858    3.3204    1.8489 H   0  0  0  0  0  0  0  0  0  0  0  0
    1.6708    2.6373    0.5116 H   0  0  0  0  0  0  0  0  0  0  0  0
    6.9277    3.0034    0.2622 H   0  0  0  0  0  0  0  0  0  0  0  0
    7.9514    1.4926   -0.9974 H   0  0  0  0  0  0  0  0  0  0  0  0
  1 13  2  0  0  0  0
  2 27  1  0  0  0  0
  2 71  1  0  0  0  0
  3  4  1  0  0  0  0
  3  5  1  0  0  0  0
  3  9  1  0  0  0  0
  3 11  1  0  0  0  0
  4  6  1  0  0  0  0
  4  8  1  0  0  0  0
  4 30  1  0  0  0  0
  5  7  1  0  0  0  0
  5 10  1  0  0  0  0
  5 31  1  0  0  0  0
  6  7  1  0  0  0  0
  6 32  1  0  0  0  0
  6 33  1  0  0  0  0
  7 34  1  0  0  0  0
  7 35  1  0  0  0  0
  8 13  1  0  0  0  0
  8 14  1  0  0  0  0
  8 36  1  0  0  0  0
  9 12  1  0  0  0  0
  9 37  1  0  0  0  0
  9 38  1  0  0  0  0
 10 15  1  0  0  0  0
 10 16  1  0  0  0  0
 10 39  1  0  0  0  0
 11 40  1  0  0  0  0
 11 41  1  0  0  0  0
 11 42  1  0  0  0  0
 12 13  1  0  0  0  0
 12 43  1  0  0  0  0
 12 44  1  0  0  0  0
 14 17  1  0  0  0  0
 14 45  1  0  0  0  0
 14 46  1  0  0  0  0
 15 18  1  0  0  0  0
 15 47  1  0  0  0  0
 15 48  1  0  0  0  0
 16 49  1  0  0  0  0
 16 50  1  0  0  0  0
 16 51  1  0  0  0  0
 17 20  1  0  0  0  0
 17 52  1  0  0  0  0
 17 53  1  0  0  0  0
 18 19  1  0  0  0  0
 18 54  1  0  0  0  0
 18 55  1  0  0  0  0
 19 21  1  0  0  0  0
 19 56  1  0  0  0  0
 19 57  1  0  0  0  0
 20 22  2  0  0  0  0
 20 23  1  0  0  0  0
 21 24  1  0  0  0  0
 21 25  1  0  0  0  0
 21 58  1  0  0  0  0
 22 26  1  0  0  0  0
 22 28  1  0  0  0  0
 23 27  2  0  0  0  0
 23 59  1  0  0  0  0
 24 60  1  0  0  0  0
 24 61  1  0  0  0  0
 24 62  1  0  0  0  0
 25 63  1  0  0  0  0
 25 64  1  0  0  0  0
 25 65  1  0  0  0  0
 26 29  2  0  0  0  0
 26 66  1  0  0  0  0
 27 29  1  0  0  0  0
 28 67  1  0  0  0  0
 28 68  1  0  0  0  0
 28 69  1  0  0  0  0
 29 70  1  0  0  0  0
M  END
> <PUBCHEM_COMPOUND_CID>
5283685

> <PUBCHEM_CONFORMER_RMSD>
1

> <PUBCHEM_CONFORMER_DIVERSEORDER>
5
13
31
20
24
37
11
19
29
12
17
36
35
8
14
1
28
21
30
4
16
23
18
10
25
33
26
27
34
32
15
2
3
22
9
7
6

> <PUBCHEM_MMFF94_PARTIAL_CHARGES>
17
1 -0.57
12 0.06
13 0.45
17 0.14
2 -0.53
20 -0.14
22 -0.14
23 -0.15
26 -0.15
27 0.08
28 0.14
29 -0.15
59 0.15
66 0.15
70 0.15
71 0.45
8 0.06

> <PUBCHEM_EFFECTIVE_ROTOR_COUNT>
9.2

> <PUBCHEM_PHARMACOPHORE_FEATURES>
8
1 1 acceptor
1 16 hydrophobe
1 2 donor
3 21 24 25 hydrophobe
5 10 15 18 19 21 hydrophobe
5 3 4 5 6 7 rings
6 20 22 23 26 27 29 rings
6 3 4 8 9 12 13 rings

> <PUBCHEM_HEAVY_ATOM_COUNT>
29

> <PUBCHEM_ATOM_DEF_STEREO_COUNT>
5

> <PUBCHEM_ATOM_UDEF_STEREO_COUNT>
0

> <PUBCHEM_BOND_DEF_STEREO_COUNT>
0

> <PUBCHEM_BOND_UDEF_STEREO_COUNT>
0

> <PUBCHEM_ISOTOPIC_ATOM_COUNT>
0

> <PUBCHEM_COMPONENT_COUNT>
1

> <PUBCHEM_CACTVS_TAUTO_COUNT>
27

> <PUBCHEM_CONFORMER_ID>
00509F6500000005

> <PUBCHEM_MMFF94_ENERGY>
89.2281

> <PUBCHEM_FEATURE_SELFOVERLAP>
40.672

> <PUBCHEM_SHAPE_FINGERPRINT>
10763959 59 18336554897420853868
11578080 2 18336830788876542687
11796584 16 10807946929197850947
12769317 202 18342734079390306673
13257819 101 18410577275539609311
13690498 29 17488170699053184671
13944108 23 18124878962660717696
14211702 104 9583516538083895793
14251751 18 10231754496196464889
14251764 30 9583523109352158189
14705955 166 17459768088460562201
14739800 52 17896032140742268169
15082195 135 18059006168857267179
15163728 17 18335419024546871187
15510800 12 9943514186281607365
15575132 122 18412266172344053729
15961568 22 18334014982690217957
17980427 26 18115855322603658787
19438510 23 18187366493837644473
20511986 3 17774717684505852298
21033648 144 18342186608346084659
21033648 29 17895491245092684771
21223535 225 18340760516327657356
21388113 180 18265895766240884749
21859007 373 18341602746782825592
22121540 332 18263926540546306292
22393880 68 18059854012486434179
23559900 14 17987234430684713267
23569914 2 17607771016777981125
2838139 119 18410290345680060900
376196 1 18411135852842329210
4058900 60 18333735710456756362
4144715 1 18259994764085282427
4173938 306 17632282520133058752
508706 21 18266735964300653457
5486654 36 8358265847656626087
6431902 208 8574715676377720153
7970288 3 9655036445403628660

> <PUBCHEM_SHAPE_MULTIPOLES>
585.07
15.88
4.84
1.58
4.35
1.4
-0.04
19.86
-4.68
-3.64
-1.18
-0.71
-0.2
2.34

> <PUBCHEM_SHAPE_SELFOVERLAP>
1211.074

> <PUBCHEM_SHAPE_VOLUME>
336.6

> <PUBCHEM_COORDINATE_TYPE>
2
5
10

$$$$
