15289413
  -OEChem-10062121593D

 55 59  0     0  0  0  0  0  0999 V2000
    5.4167    0.6929   -1.3678 S   0  0  0  0  0  0  0  0  0  0  0  0
   -3.8938   -0.0657    1.3460 O   0  0  0  0  0  0  0  0  0  0  0  0
   -5.1835   -0.0837   -3.0509 O   0  0  0  0  0  0  0  0  0  0  0  0
    0.5721    1.1349    0.5379 N   0  0  0  0  0  0  0  0  0  0  0  0
   -4.8812   -0.2674   -0.7462 N   0  0  0  0  0  0  0  0  0  0  0  0
    7.9832    0.1316   -1.5810 N   0  0  0  0  0  0  0  0  0  0  0  0
    6.9887   -0.3747    0.5003 N   0  0  0  0  0  0  0  0  0  0  0  0
   -0.4031    0.3372    0.0022 C   0  0  0  0  0  0  0  0  0  0  0  0
   -1.5384    1.0995   -0.1491 C   0  0  0  0  0  0  0  0  0  0  0  0
    0.0873    2.4078    0.7380 C   0  0  0  0  0  0  0  0  0  0  0  0
   -1.2428    2.4127    0.3126 C   0  0  0  0  0  0  0  0  0  0  0  0
    1.9231    0.7128    0.8514 C   0  0  0  0  0  0  0  0  0  0  0  0
   -0.1761   -1.0589   -0.3156 C   0  0  0  0  0  0  0  0  0  0  0  0
    2.8759    0.9088   -0.3287 C   0  0  0  0  0  0  0  0  0  0  0  0
   -2.7825    0.6332   -0.6784 C   0  0  0  0  0  0  0  0  0  0  0  0
    0.7182    3.5437    1.2576 C   0  0  0  0  0  0  0  0  0  0  0  0
   -0.4080   -2.0891    0.6103 C   0  0  0  0  0  0  0  0  0  0  0  0
   -1.9814    3.6086    0.4095 C   0  0  0  0  0  0  0  0  0  0  0  0
    0.2905   -1.3466   -1.5985 C   0  0  0  0  0  0  0  0  0  0  0  0
   -0.1639   -3.4299    0.2291 C   0  0  0  0  0  0  0  0  0  0  0  0
    4.2892    0.4664    0.0373 C   0  0  0  0  0  0  0  0  0  0  0  0
   -0.0343    4.7185    1.3442 C   0  0  0  0  0  0  0  0  0  0  0  0
   -1.3633    4.7527    0.9272 C   0  0  0  0  0  0  0  0  0  0  0  0
   -3.8878    0.0590    0.1331 C   0  0  0  0  0  0  0  0  0  0  0  0
   -3.1915    0.6342   -1.9546 C   0  0  0  0  0  0  0  0  0  0  0  0
   -0.8778   -1.8180    1.9056 C   0  0  0  0  0  0  0  0  0  0  0  0
    0.5306   -2.6652   -1.9734 C   0  0  0  0  0  0  0  0  0  0  0  0
    0.3054   -3.7012   -1.0665 C   0  0  0  0  0  0  0  0  0  0  0  0
   -4.5406    0.0552   -2.0254 C   0  0  0  0  0  0  0  0  0  0  0  0
   -0.3962   -4.4602    1.1549 C   0  0  0  0  0  0  0  0  0  0  0  0
   -1.1029   -2.8541    2.8125 C   0  0  0  0  0  0  0  0  0  0  0  0
   -0.8624   -4.1727    2.4379 C   0  0  0  0  0  0  0  0  0  0  0  0
    6.9307    0.0778   -0.7113 C   0  0  0  0  0  0  0  0  0  0  0  0
    1.9024   -0.3356    1.1661 H   0  0  0  0  0  0  0  0  0  0  0  0
    2.2637    1.2797    1.7251 H   0  0  0  0  0  0  0  0  0  0  0  0
    2.8787    1.9670   -0.6212 H   0  0  0  0  0  0  0  0  0  0  0  0
    2.5219    0.3445   -1.1980 H   0  0  0  0  0  0  0  0  0  0  0  0
    1.7533    3.5317    1.5811 H   0  0  0  0  0  0  0  0  0  0  0  0
   -3.0185    3.6529    0.0893 H   0  0  0  0  0  0  0  0  0  0  0  0
    0.4669   -0.5553   -2.3237 H   0  0  0  0  0  0  0  0  0  0  0  0
    4.6549    1.0521    0.8875 H   0  0  0  0  0  0  0  0  0  0  0  0
    4.2816   -0.5910    0.3225 H   0  0  0  0  0  0  0  0  0  0  0  0
    0.4261    5.6192    1.7420 H   0  0  0  0  0  0  0  0  0  0  0  0
   -1.9281    5.6781    1.0040 H   0  0  0  0  0  0  0  0  0  0  0  0
   -2.6450    0.9859   -2.8148 H   0  0  0  0  0  0  0  0  0  0  0  0
   -1.0784   -0.8060    2.2480 H   0  0  0  0  0  0  0  0  0  0  0  0
    0.8924   -2.8885   -2.9728 H   0  0  0  0  0  0  0  0  0  0  0  0
    0.4996   -4.7245   -1.3813 H   0  0  0  0  0  0  0  0  0  0  0  0
   -5.7664   -0.6822   -0.4781 H   0  0  0  0  0  0  0  0  0  0  0  0
   -0.2153   -5.4982    0.8835 H   0  0  0  0  0  0  0  0  0  0  0  0
   -1.4656   -2.6311    3.8117 H   0  0  0  0  0  0  0  0  0  0  0  0
   -1.0378   -4.9787    3.1444 H   0  0  0  0  0  0  0  0  0  0  0  0
    8.9062   -0.1938   -1.3151 H   0  0  0  0  0  0  0  0  0  0  0  0
    7.8718    0.4993   -2.5195 H   0  0  0  0  0  0  0  0  0  0  0  0
    7.9481   -0.6828    0.6927 H   0  0  0  0  0  0  0  0  0  0  0  0
  1 21  1  0  0  0  0
  1 33  1  0  0  0  0
  2 24  2  0  0  0  0
  3 29  2  0  0  0  0
  4  8  1  0  0  0  0
  4 10  1  0  0  0  0
  4 12  1  0  0  0  0
  5 24  1  0  0  0  0
  5 29  1  0  0  0  0
  5 49  1  0  0  0  0
  6 33  1  0  0  0  0
  6 53  1  0  0  0  0
  6 54  1  0  0  0  0
  7 33  2  0  0  0  0
  7 55  1  0  0  0  0
  8  9  2  0  0  0  0
  8 13  1  0  0  0  0
  9 11  1  0  0  0  0
  9 15  1  0  0  0  0
 10 11  1  0  0  0  0
 10 16  2  0  0  0  0
 11 18  2  0  0  0  0
 12 14  1  0  0  0  0
 12 34  1  0  0  0  0
 12 35  1  0  0  0  0
 13 17  1  0  0  0  0
 13 19  2  0  0  0  0
 14 21  1  0  0  0  0
 14 36  1  0  0  0  0
 14 37  1  0  0  0  0
 15 24  1  0  0  0  0
 15 25  2  0  0  0  0
 16 22  1  0  0  0  0
 16 38  1  0  0  0  0
 17 20  1  0  0  0  0
 17 26  2  0  0  0  0
 18 23  1  0  0  0  0
 18 39  1  0  0  0  0
 19 27  1  0  0  0  0
 19 40  1  0  0  0  0
 20 28  1  0  0  0  0
 20 30  2  0  0  0  0
 21 41  1  0  0  0  0
 21 42  1  0  0  0  0
 22 23  2  0  0  0  0
 22 43  1  0  0  0  0
 23 44  1  0  0  0  0
 25 29  1  0  0  0  0
 25 45  1  0  0  0  0
 26 31  1  0  0  0  0
 26 46  1  0  0  0  0
 27 28  2  0  0  0  0
 27 47  1  0  0  0  0
 28 48  1  0  0  0  0
 30 32  1  0  0  0  0
 30 50  1  0  0  0  0
 31 32  2  0  0  0  0
 31 51  1  0  0  0  0
 32 52  1  0  0  0  0
M  END
> <PUBCHEM_COMPOUND_CID>
15289413

> <PUBCHEM_CONFORMER_RMSD>
1

> <PUBCHEM_CONFORMER_DIVERSEORDER>
1
22
35
9
26
5
19
37
32
15
42
20
6
39
7
31
30
23
24
40
28
12
3
14
29
38
11
13
36
21
10
34
25
18
33
4
27
17
2
8
41
16

> <PUBCHEM_MMFF94_PARTIAL_CHARGES>
45
1 -0.37
10 -0.15
12 0.26
13 0.05
15 0.06
16 -0.15
18 -0.15
19 -0.15
2 -0.57
21 0.23
22 -0.15
23 -0.15
24 0.62
25 -0.14
26 -0.15
27 -0.15
28 -0.15
29 0.62
3 -0.57
30 -0.15
31 -0.15
32 -0.15
33 0.64
38 0.15
39 0.15
4 0.05
40 0.15
43 0.15
44 0.15
45 0.15
46 0.15
47 0.15
48 0.15
49 0.37
5 -0.49
50 0.15
51 0.15
52 0.15
53 0.4
54 0.4
55 0.4
6 -0.85
7 -0.85
8 -0.2
9 -0.05

> <PUBCHEM_EFFECTIVE_ROTOR_COUNT>
7.2

> <PUBCHEM_PHARMACOPHORE_FEATURES>
12
1 2 acceptor
1 3 acceptor
1 4 cation
1 5 donor
1 6 donor
1 7 donor
3 6 7 33 cation
5 4 8 9 10 11 rings
5 5 15 24 25 29 rings
6 10 11 16 18 22 23 rings
6 13 17 19 20 27 28 rings
6 17 20 26 30 31 32 rings

> <PUBCHEM_HEAVY_ATOM_COUNT>
33

> <PUBCHEM_ATOM_DEF_STEREO_COUNT>
0

> <PUBCHEM_ATOM_UDEF_STEREO_COUNT>
0

> <PUBCHEM_BOND_DEF_STEREO_COUNT>
0

> <PUBCHEM_BOND_UDEF_STEREO_COUNT>
0

> <PUBCHEM_ISOTOPIC_ATOM_COUNT>
0

> <PUBCHEM_COMPONENT_COUNT>
1

> <PUBCHEM_CACTVS_TAUTO_COUNT>
3

> <PUBCHEM_CONFORMER_ID>
00E94C4500000001

> <PUBCHEM_MMFF94_ENERGY>
82.0287

> <PUBCHEM_FEATURE_SELFOVERLAP>
61.053

> <PUBCHEM_SHAPE_FINGERPRINT>
10032420 55 18340188709655890164
10119406 146 18267319655611620014
10930396 42 18126533883223089440
11297750 10 17829056755229867579
11756154 5 18336552728451450168
11991303 11 17967529120735758350
12608794 3 17840327823310006187
12788726 201 18411978027773463848
13140716 1 17331657550600843929
13149001 5 18194676205725951645
13165053 137 17534329060259115772
13911987 19 18334007285575560447
15775530 1 17689434205866346565
15927050 60 17840029537493409624
19958102 18 18261114024726351190
20775438 99 17194283416452398317
21421861 104 18049435947220288457
21639891 77 18118136976481174626
23558518 356 18050015393578448090
23559900 14 18339642373648787024
283562 15 18340488854892353272
3383291 50 18343015619198072070
4015057 19 17916862564408281376
4058900 60 17968651597373486175
4409770 3 18188784940730142242
44802255 64 17240485806202258206
57527295 17 18193532521303776109
57527358 35 15793160266078872877
9981440 41 18269846324393829766

> <PUBCHEM_SHAPE_MULTIPOLES>
651.31
10.54
6.17
2.33
25.34
0.71
-0.23
2.01
-7.71
-2.8
4.46
-1.97
-1.66
0.63

> <PUBCHEM_SHAPE_SELFOVERLAP>
1441.884

> <PUBCHEM_SHAPE_VOLUME>
354.1

> <PUBCHEM_COORDINATE_TYPE>
2
5
10

$$$$
