4872633
  -OEChem-10062121583D

 49 52  0     1  0  0  0  0  0999 V2000
   -1.8712   -2.9901   -0.1630 F   0  0  0  0  0  0  0  0  0  0  0  0
   -1.0437    1.6370    0.3168 O   0  0  0  0  0  0  0  0  0  0  0  0
    3.1515   -2.6433   -0.2612 O   0  0  0  0  0  0  0  0  0  0  0  0
    5.5862   -1.7023   -0.2240 O   0  5  0  0  0  0  0  0  0  0  0  0
    5.8421    0.5585    0.0149 O   0  0  0  0  0  0  0  0  0  0  0  0
    1.8236    1.1855    0.1903 N   0  0  0  0  0  0  0  0  0  0  0  0
   -2.8178   -0.4216    0.1423 N   0  0  1  0  0  0  0  0  0  0  0  0
   -5.6192   -0.1116    0.2615 N   0  3  0  0  0  0  0  0  0  0  0  0
    1.4768    2.6164    0.3541 C   0  0  0  0  0  0  0  0  0  0  0  0
    2.4208    3.6843   -0.0849 C   0  0  0  0  0  0  0  0  0  0  0  0
    1.1371    3.4591   -0.8287 C   0  0  0  0  0  0  0  0  0  0  0  0
   -4.8473    0.6258   -0.7908 C   0  0  1  0  0  0  0  0  0  0  0  0
    0.8579    0.1419    0.1034 C   0  0  0  0  0  0  0  0  0  0  0  0
   -3.5647   -0.1528   -1.0939 C   0  0  0  0  0  0  0  0  0  0  0  0
   -3.5735   -1.0613    1.2292 C   0  0  0  0  0  0  0  0  0  0  0  0
   -4.8456   -0.2821    1.5254 C   0  0  0  0  0  0  0  0  0  0  0  0
   -1.4415   -0.6683    0.0780 C   0  0  0  0  0  0  0  0  0  0  0  0
   -0.5242    0.3825    0.1673 C   0  0  0  0  0  0  0  0  0  0  0  0
    3.1680    0.8771    0.1208 C   0  0  0  0  0  0  0  0  0  0  0  0
    1.2888   -1.1939   -0.0533 C   0  0  0  0  0  0  0  0  0  0  0  0
   -5.7316    0.7744   -2.0200 C   0  0  0  0  0  0  0  0  0  0  0  0
   -0.9961   -1.9782   -0.0764 C   0  0  0  0  0  0  0  0  0  0  0  0
    3.6781   -0.3497   -0.0262 C   0  0  0  0  0  0  0  0  0  0  0  0
    0.3688   -2.2457   -0.1426 C   0  0  0  0  0  0  0  0  0  0  0  0
    2.7427   -1.4969   -0.1258 C   0  0  0  0  0  0  0  0  0  0  0  0
    5.1799   -0.5136   -0.0839 C   0  0  0  0  0  0  0  0  0  0  0  0
   -1.8459    1.8689    1.4709 C   0  0  0  0  0  0  0  0  0  0  0  0
    0.9862    2.8136    1.3019 H   0  0  0  0  0  0  0  0  0  0  0  0
    2.4920    4.5745    0.5309 H   0  0  0  0  0  0  0  0  0  0  0  0
    3.3154    3.4967   -0.6643 H   0  0  0  0  0  0  0  0  0  0  0  0
    1.1956    3.0138   -1.8143 H   0  0  0  0  0  0  0  0  0  0  0  0
    0.3519    4.1964   -0.7160 H   0  0  0  0  0  0  0  0  0  0  0  0
   -4.6209    1.6146   -0.3764 H   0  0  0  0  0  0  0  0  0  0  0  0
   -3.7929   -1.1044   -1.5911 H   0  0  0  0  0  0  0  0  0  0  0  0
   -2.9500    0.4357   -1.7867 H   0  0  0  0  0  0  0  0  0  0  0  0
   -5.9078   -1.0342   -0.0939 H   0  0  0  0  0  0  0  0  0  0  0  0
   -6.4910    0.3951    0.4687 H   0  0  0  0  0  0  0  0  0  0  0  0
   -2.9725   -1.1100    2.1454 H   0  0  0  0  0  0  0  0  0  0  0  0
   -3.8299   -2.0904    0.9490 H   0  0  0  0  0  0  0  0  0  0  0  0
   -5.4903   -0.8228    2.2246 H   0  0  0  0  0  0  0  0  0  0  0  0
   -4.6474    0.7173    1.9238 H   0  0  0  0  0  0  0  0  0  0  0  0
    3.8265    1.7237    0.2535 H   0  0  0  0  0  0  0  0  0  0  0  0
   -5.2060    1.3247   -2.8074 H   0  0  0  0  0  0  0  0  0  0  0  0
   -6.0230   -0.2003   -2.4265 H   0  0  0  0  0  0  0  0  0  0  0  0
   -6.6466    1.3265   -1.7799 H   0  0  0  0  0  0  0  0  0  0  0  0
    0.6960   -3.2745   -0.2634 H   0  0  0  0  0  0  0  0  0  0  0  0
   -1.7612    1.0834    2.2293 H   0  0  0  0  0  0  0  0  0  0  0  0
   -2.8838    2.0278    1.1749 H   0  0  0  0  0  0  0  0  0  0  0  0
   -1.4996    2.8004    1.9304 H   0  0  0  0  0  0  0  0  0  0  0  0
  1 22  1  0  0  0  0
  2 18  1  0  0  0  0
  2 27  1  0  0  0  0
  3 25  2  0  0  0  0
  4 26  1  0  0  0  0
  5 26  2  0  0  0  0
  6  9  1  0  0  0  0
  6 13  1  0  0  0  0
  6 19  1  0  0  0  0
  7 14  1  0  0  0  0
  7 15  1  0  0  0  0
  7 17  1  0  0  0  0
  8 12  1  0  0  0  0
  8 16  1  0  0  0  0
  8 36  1  0  0  0  0
  8 37  1  0  0  0  0
  9 10  1  0  0  0  0
  9 11  1  0  0  0  0
  9 28  1  0  0  0  0
 10 11  1  0  0  0  0
 10 29  1  0  0  0  0
 10 30  1  0  0  0  0
 11 31  1  0  0  0  0
 11 32  1  0  0  0  0
 12 14  1  0  0  0  0
 12 21  1  0  0  0  0
 12 33  1  0  0  0  0
 13 18  2  0  0  0  0
 13 20  1  0  0  0  0
 14 34  1  0  0  0  0
 14 35  1  0  0  0  0
 15 16  1  0  0  0  0
 15 38  1  0  0  0  0
 15 39  1  0  0  0  0
 16 40  1  0  0  0  0
 16 41  1  0  0  0  0
 17 18  1  0  0  0  0
 17 22  2  0  0  0  0
 19 23  2  0  0  0  0
 19 42  1  0  0  0  0
 20 24  2  0  0  0  0
 20 25  1  0  0  0  0
 21 43  1  0  0  0  0
 21 44  1  0  0  0  0
 21 45  1  0  0  0  0
 22 24  1  0  0  0  0
 23 25  1  0  0  0  0
 23 26  1  0  0  0  0
 24 46  1  0  0  0  0
 27 47  1  0  0  0  0
 27 48  1  0  0  0  0
 27 49  1  0  0  0  0
M  CHG  2   4  -1   8   1
M  END
> <PUBCHEM_COMPOUND_CID>
4872633

> <PUBCHEM_CONFORMER_RMSD>
0.8

> <PUBCHEM_CONFORMER_DIVERSEORDER>
1
6
2
5
3
4

> <PUBCHEM_MMFF94_PARTIAL_CHARGES>
35
1 -0.19
10 -0.2
11 -0.2
12 0.5
13 0.1
14 0.37
15 0.37
16 0.5
17 0.1
18 0.08
19 -0.05
2 -0.36
20 0.09
22 0.19
23 -0.24
24 -0.15
25 0.47
26 1.05
27 0.28
28 0.1
29 0.1
3 -0.57
30 0.1
31 0.1
32 0.1
36 0.45
37 0.45
4 -0.9
42 0.15
46 0.15
5 -0.9
6 -0.37
7 -0.84
8 -0.91
9 0.07

> <PUBCHEM_EFFECTIVE_ROTOR_COUNT>
5.8

> <PUBCHEM_PHARMACOPHORE_FEATURES>
12
1 2 acceptor
1 3 acceptor
1 4 acceptor
1 5 acceptor
1 6 cation
1 7 cation
1 8 cation
1 8 donor
3 4 5 26 anion
6 13 17 18 20 22 24 rings
6 6 13 19 20 23 25 rings
6 7 8 12 14 15 16 rings

> <PUBCHEM_HEAVY_ATOM_COUNT>
27

> <PUBCHEM_ATOM_DEF_STEREO_COUNT>
0

> <PUBCHEM_ATOM_UDEF_STEREO_COUNT>
1

> <PUBCHEM_BOND_DEF_STEREO_COUNT>
0

> <PUBCHEM_BOND_UDEF_STEREO_COUNT>
0

> <PUBCHEM_ISOTOPIC_ATOM_COUNT>
0

> <PUBCHEM_COMPONENT_COUNT>
1

> <PUBCHEM_CACTVS_TAUTO_COUNT>
1

> <PUBCHEM_CONFORMER_ID>
004A59B900000001

> <PUBCHEM_MMFF94_ENERGY>
107.4281

> <PUBCHEM_FEATURE_SELFOVERLAP>
60.987

> <PUBCHEM_SHAPE_FINGERPRINT>
10411042 1 18194968426795609522
10906281 52 18200049394507007542
10967382 1 18411703179746771658
1100329 8 18339929328243742026
11421498 54 13334725800253825532
11545043 162 17386011697655306889
11578080 2 13624971659388160884
12011746 2 18411418393318517062
12166972 35 18201716284421182833
12236239 1 17489586757964515911
12553582 1 18410288104118764514
12838862 33 18339905087986419360
13140716 1 18196659716101748298
13402501 40 18260258617085009877
13583140 156 17894348895629839123
13782708 43 17895198856804711171
14068700 675 18060125523065606824
14294032 229 16127820635646339729
14790565 3 18339653243403800784
15003188 100 18262785351083065885
15081414 286 18340778065431685382
15099037 51 18410854373533169023
15196674 1 18340206417969224450
15475509 8 17842871891415533444
1601671 61 18410856573047041374
16087824 20 18265897952047377237
16945 1 18341057397040373730
16994733 274 15647342965674153548
17349148 13 18060140937977031969
17980427 23 17988371373041696305
18785283 64 18117569632712808316
200 152 18131627864137182897
20642791 178 18045790250172914836
20739085 24 18053973691072823026
21029758 11 18342454824879961224
21033648 144 18269548506517873461
21033648 29 18041549317517412029
21033650 10 15553074128046874131
21267235 1 18340498768446914570
21641784 216 18042988496924203284
21709351 56 18411131476713421943
21792961 116 18114185177594429214
21859007 373 18042660884813089132
22182313 1 18263339487352879180
2334 1 17764590215265795210
23402539 116 18202561757033158431
23559900 14 18342451599385934920
23569914 2 16157607722947785341
3178227 256 18335996315274749179
335352 9 18411701006356098710
34934 24 18410567397205012142
350125 39 18411990164734454872
484989 97 18265891540141044479
5104073 3 18267865163106435354
59755656 215 18337956676030800558
9981440 41 17402328669223946800

> <PUBCHEM_SHAPE_MULTIPOLES>
509.95
11.53
3.36
1.12
2.72
1.98
0.05
-1.39
1.78
-2.88
0.27
1.99
0.31
0.63

> <PUBCHEM_SHAPE_SELFOVERLAP>
1102.502

> <PUBCHEM_SHAPE_VOLUME>
280.5

> <PUBCHEM_COORDINATE_TYPE>
2
5
10

$$$$
