9820089
  -OEChem-10052115183D

 30 32  0     0  0  0  0  0  0999 V2000
   -0.2120   -2.5913    0.2080 Cl  0  0  0  0  0  0  0  0  0  0  0  0
    5.0803   -2.3897   -0.1449 Cl  0  0  0  0  0  0  0  0  0  0  0  0
   -4.3423   -1.2080   -2.3837 Cl  0  0  0  0  0  0  0  0  0  0  0  0
   -1.1975    2.8004   -0.0838 O   0  0  0  0  0  0  0  0  0  0  0  0
   -1.4100    0.1843    2.5125 O   0  0  0  0  0  0  0  0  0  0  0  0
    1.2233    3.9192   -0.3125 O   0  0  0  0  0  0  0  0  0  0  0  0
    2.3492    1.9291   -0.2535 N   0  0  0  0  0  0  0  0  0  0  0  0
   -0.1421    0.6106   -0.0074 C   0  0  0  0  0  0  0  0  0  0  0  0
    1.1338   -0.1525   -0.0392 C   0  0  0  0  0  0  0  0  0  0  0  0
    2.3475    0.5320   -0.1617 C   0  0  0  0  0  0  0  0  0  0  0  0
   -1.4919    0.0576    0.1140 C   0  0  0  0  0  0  0  0  0  0  0  0
   -0.0952    1.9620   -0.0991 C   0  0  0  0  0  0  0  0  0  0  0  0
    1.1704   -1.5530    0.0504 C   0  0  0  0  0  0  0  0  0  0  0  0
    1.2058    2.6914   -0.2305 C   0  0  0  0  0  0  0  0  0  0  0  0
    3.5673   -0.1520   -0.1949 C   0  0  0  0  0  0  0  0  0  0  0  0
   -2.0729   -0.1327    1.3638 C   0  0  0  0  0  0  0  0  0  0  0  0
   -2.1861   -0.2736   -1.0457 C   0  0  0  0  0  0  0  0  0  0  0  0
    2.3869   -2.2409    0.0173 C   0  0  0  0  0  0  0  0  0  0  0  0
    3.5840   -1.5411   -0.1051 C   0  0  0  0  0  0  0  0  0  0  0  0
   -3.3617   -0.6591    1.4549 C   0  0  0  0  0  0  0  0  0  0  0  0
   -3.4745   -0.8002   -0.9545 C   0  0  0  0  0  0  0  0  0  0  0  0
   -4.0624   -0.9927    0.2957 C   0  0  0  0  0  0  0  0  0  0  0  0
    3.2445    2.4016   -0.3419 H   0  0  0  0  0  0  0  0  0  0  0  0
    4.4992    0.4011   -0.2907 H   0  0  0  0  0  0  0  0  0  0  0  0
   -1.7296   -0.1239   -2.0222 H   0  0  0  0  0  0  0  0  0  0  0  0
    2.4088   -3.3271    0.0871 H   0  0  0  0  0  0  0  0  0  0  0  0
   -3.8254   -0.8121    2.4256 H   0  0  0  0  0  0  0  0  0  0  0  0
   -5.0659   -1.4016    0.3821 H   0  0  0  0  0  0  0  0  0  0  0  0
   -0.8812    3.7166   -0.1642 H   0  0  0  0  0  0  0  0  0  0  0  0
   -0.5153    0.5063    2.3204 H   0  0  0  0  0  0  0  0  0  0  0  0
  1 13  1  0  0  0  0
  2 19  1  0  0  0  0
  3 21  1  0  0  0  0
  4 12  1  0  0  0  0
  4 29  1  0  0  0  0
  5 16  1  0  0  0  0
  5 30  1  0  0  0  0
  6 14  2  0  0  0  0
  7 10  1  0  0  0  0
  7 14  1  0  0  0  0
  7 23  1  0  0  0  0
  8  9  1  0  0  0  0
  8 11  1  0  0  0  0
  8 12  2  0  0  0  0
  9 10  2  0  0  0  0
  9 13  1  0  0  0  0
 10 15  1  0  0  0  0
 11 16  2  0  0  0  0
 11 17  1  0  0  0  0
 12 14  1  0  0  0  0
 13 18  2  0  0  0  0
 15 19  2  0  0  0  0
 15 24  1  0  0  0  0
 16 20  1  0  0  0  0
 17 21  2  0  0  0  0
 17 25  1  0  0  0  0
 18 19  1  0  0  0  0
 18 26  1  0  0  0  0
 20 22  2  0  0  0  0
 20 27  1  0  0  0  0
 21 22  1  0  0  0  0
 22 28  1  0  0  0  0
M  END
> <PUBCHEM_COMPOUND_CID>
9820089

> <PUBCHEM_CONFORMER_RMSD>
0.6

> <PUBCHEM_CONFORMER_DIVERSEORDER>
2
1

> <PUBCHEM_MMFF94_PARTIAL_CHARGES>
30
1 -0.18
10 0.12
11 0.03
12 0.09
13 0.18
14 0.62
15 -0.15
16 0.08
17 -0.15
18 -0.15
19 0.18
2 -0.18
20 -0.15
21 0.18
22 -0.15
23 0.37
24 0.15
25 0.15
26 0.15
27 0.15
28 0.15
29 0.45
3 -0.18
30 0.45
4 -0.53
5 -0.53
6 -0.57
7 -0.55
8 -0.06
9 0.03

> <PUBCHEM_EFFECTIVE_ROTOR_COUNT>
1

> <PUBCHEM_PHARMACOPHORE_FEATURES>
7
1 4 donor
1 5 donor
1 6 acceptor
1 7 donor
6 11 16 17 20 21 22 rings
6 7 8 9 10 12 14 rings
6 9 10 13 15 18 19 rings

> <PUBCHEM_HEAVY_ATOM_COUNT>
22

> <PUBCHEM_ATOM_DEF_STEREO_COUNT>
0

> <PUBCHEM_ATOM_UDEF_STEREO_COUNT>
0

> <PUBCHEM_BOND_DEF_STEREO_COUNT>
0

> <PUBCHEM_BOND_UDEF_STEREO_COUNT>
0

> <PUBCHEM_ISOTOPIC_ATOM_COUNT>
0

> <PUBCHEM_COMPONENT_COUNT>
1

> <PUBCHEM_CACTVS_TAUTO_COUNT>
35

> <PUBCHEM_CONFORMER_ID>
0095D7B900000002

> <PUBCHEM_MMFF94_ENERGY>
70.4736

> <PUBCHEM_FEATURE_SELFOVERLAP>
35.547

> <PUBCHEM_SHAPE_FINGERPRINT>
10411042 1 18337393738598075938
10967382 1 18337677532920040228
11578080 2 17559084697676417217
11582403 64 16744189540294170437
11725454 13 16956150033205697589
12236239 1 17917996087939842899
12363563 72 18334862675741983962
12553582 1 18410866442734389502
12596599 1 17846510209282266142
12788726 201 17830724366249804497
13009979 54 17775011205948495303
13134695 92 18407760352355566156
13140716 1 17907020934643902584
13911987 19 18259994768828499654
13965767 371 16836609707035674193
14790565 3 18048621475044984244
16945 1 18337679731769384840
17357779 13 18261108547846431102
1813 80 18200329731307004630
18222031 100 18342165649190743982
18927931 339 18122069693941696534
192875 21 18342454854770685035
19433438 48 18129947767019686066
200 152 18412822460808577591
20645477 70 18190170364251804927
21639500 275 18265615566346857677
22112679 90 17489319628284004273
221490 88 18191309488110439299
2255824 54 18269000958464803508
23175994 123 18261118452130822535
2334 1 18337115562198180324
23402539 116 18340485556689694758
23419403 2 14498275193013202481
23526113 38 18114166545603883637
23559900 14 18335977670373187434
238 59 18118664729430611615
2748010 2 18337667499945229508
34934 24 17975700489215319905
57527295 17 17823398432523474119
7471813 234 18271515459694685877
77492 1 17774734176621203433
81228 2 17901668168236724840

> <PUBCHEM_SHAPE_MULTIPOLES>
435.77
7.63
3.34
1.41
1.11
2.85
0.18
-5.91
-1.87
2.52
-0.48
-2.24
-0.38
-0.61

> <PUBCHEM_SHAPE_SELFOVERLAP>
943.659

> <PUBCHEM_SHAPE_VOLUME>
239.5

> <PUBCHEM_COORDINATE_TYPE>
2
5
10

$$$$
