49830609
  -OEChem-10062121533D

 56 59  0     0  0  0  0  0  0999 V2000
    2.1618   -4.7312   -0.6367 F   0  0  0  0  0  0  0  0  0  0  0  0
    5.0392   -0.4492    0.3269 O   0  0  0  0  0  0  0  0  0  0  0  0
    2.5235    1.9297   -0.2756 N   0  0  0  0  0  0  0  0  0  0  0  0
   -3.0694    0.8341    0.0055 N   0  0  0  0  0  0  0  0  0  0  0  0
    0.3409    1.1363   -0.3364 N   0  0  0  0  0  0  0  0  0  0  0  0
   -3.1134   -1.3079    0.6311 N   0  0  0  0  0  0  0  0  0  0  0  0
    1.2367    2.4686   -2.1335 N   0  0  0  0  0  0  0  0  0  0  0  0
   -5.6430    1.2817    0.9718 N   0  0  0  0  0  0  0  0  0  0  0  0
    4.2303    1.5469    1.4858 C   0  0  0  0  0  0  0  0  0  0  0  0
    2.7760    1.3160    1.0082 C   0  0  0  0  0  0  0  0  0  0  0  0
    5.2608    0.9440    0.5052 C   0  0  0  0  0  0  0  0  0  0  0  0
    4.5155    3.0519    1.6454 C   0  0  0  0  0  0  0  0  0  0  0  0
    4.3856    0.8738    2.8655 C   0  0  0  0  0  0  0  0  0  0  0  0
    1.3141    1.8409   -0.9444 C   0  0  0  0  0  0  0  0  0  0  0  0
   -1.8601    0.3165   -0.3620 C   0  0  0  0  0  0  0  0  0  0  0  0
   -0.8233    1.0703   -1.0152 C   0  0  0  0  0  0  0  0  0  0  0  0
   -1.9113   -1.0040    0.0339 C   0  0  0  0  0  0  0  0  0  0  0  0
   -3.7820   -0.1800    0.5955 C   0  0  0  0  0  0  0  0  0  0  0  0
    5.9606   -1.0092   -0.5986 C   0  0  0  0  0  0  0  0  0  0  0  0
   -0.8623   -1.9640   -0.1388 C   0  0  0  0  0  0  0  0  0  0  0  0
   -5.1130    0.0913    1.0842 C   0  0  0  0  0  0  0  0  0  0  0  0
   -1.0310    1.6692   -2.2410 C   0  0  0  0  0  0  0  0  0  0  0  0
   -3.6315    2.0910   -0.1117 C   0  0  0  0  0  0  0  0  0  0  0  0
    0.0451    2.3620   -2.7571 C   0  0  0  0  0  0  0  0  0  0  0  0
   -4.8776    2.2703    0.3666 C   0  0  0  0  0  0  0  0  0  0  0  0
   -0.4044   -2.2739   -1.4195 C   0  0  0  0  0  0  0  0  0  0  0  0
   -0.2983   -2.5886    0.9735 C   0  0  0  0  0  0  0  0  0  0  0  0
   -5.8902   -1.0204    1.7289 C   0  0  0  0  0  0  0  0  0  0  0  0
    0.6170   -3.2087   -1.5878 C   0  0  0  0  0  0  0  0  0  0  0  0
    0.7231   -3.5235    0.8054 C   0  0  0  0  0  0  0  0  0  0  0  0
    1.1808   -3.8335   -0.4752 C   0  0  0  0  0  0  0  0  0  0  0  0
    2.0800    1.7311    1.7489 H   0  0  0  0  0  0  0  0  0  0  0  0
    2.5740    0.2389    0.9464 H   0  0  0  0  0  0  0  0  0  0  0  0
    6.2754    1.0933    0.8969 H   0  0  0  0  0  0  0  0  0  0  0  0
    5.2080    1.4462   -0.4683 H   0  0  0  0  0  0  0  0  0  0  0  0
    3.7819    3.5244    2.3082 H   0  0  0  0  0  0  0  0  0  0  0  0
    5.5082    3.2187    2.0795 H   0  0  0  0  0  0  0  0  0  0  0  0
    4.4895    3.5803    0.6869 H   0  0  0  0  0  0  0  0  0  0  0  0
    3.7042    1.3179    3.6002 H   0  0  0  0  0  0  0  0  0  0  0  0
    5.4059    0.9879    3.2487 H   0  0  0  0  0  0  0  0  0  0  0  0
    4.1658   -0.1985    2.8177 H   0  0  0  0  0  0  0  0  0  0  0  0
    3.2518    2.4601   -0.7382 H   0  0  0  0  0  0  0  0  0  0  0  0
    5.8459   -0.5452   -1.5830 H   0  0  0  0  0  0  0  0  0  0  0  0
    6.9874   -0.8870   -0.2405 H   0  0  0  0  0  0  0  0  0  0  0  0
    5.7483   -2.0778   -0.6908 H   0  0  0  0  0  0  0  0  0  0  0  0
   -1.9671    1.6042   -2.7815 H   0  0  0  0  0  0  0  0  0  0  0  0
   -3.0624    2.8884   -0.5711 H   0  0  0  0  0  0  0  0  0  0  0  0
   -0.0226    2.8640   -3.7163 H   0  0  0  0  0  0  0  0  0  0  0  0
   -5.3501    3.2441    0.2948 H   0  0  0  0  0  0  0  0  0  0  0  0
   -0.8352   -1.8058   -2.3014 H   0  0  0  0  0  0  0  0  0  0  0  0
   -0.6418   -2.3572    1.9791 H   0  0  0  0  0  0  0  0  0  0  0  0
   -6.8740   -0.6652    2.0482 H   0  0  0  0  0  0  0  0  0  0  0  0
   -6.0220   -1.8387    1.0152 H   0  0  0  0  0  0  0  0  0  0  0  0
   -5.3456   -1.3915    2.6018 H   0  0  0  0  0  0  0  0  0  0  0  0
    0.9727   -3.4517   -2.5847 H   0  0  0  0  0  0  0  0  0  0  0  0
    1.1630   -4.0096    1.6712 H   0  0  0  0  0  0  0  0  0  0  0  0
  1 31  1  0  0  0  0
  2 11  1  0  0  0  0
  2 19  1  0  0  0  0
  3 10  1  0  0  0  0
  3 14  1  0  0  0  0
  3 42  1  0  0  0  0
  4 15  1  0  0  0  0
  4 18  1  0  0  0  0
  4 23  1  0  0  0  0
  5 14  1  0  0  0  0
  5 16  2  0  0  0  0
  6 17  1  0  0  0  0
  6 18  2  0  0  0  0
  7 14  2  0  0  0  0
  7 24  1  0  0  0  0
  8 21  2  0  0  0  0
  8 25  1  0  0  0  0
  9 10  1  0  0  0  0
  9 11  1  0  0  0  0
  9 12  1  0  0  0  0
  9 13  1  0  0  0  0
 10 32  1  0  0  0  0
 10 33  1  0  0  0  0
 11 34  1  0  0  0  0
 11 35  1  0  0  0  0
 12 36  1  0  0  0  0
 12 37  1  0  0  0  0
 12 38  1  0  0  0  0
 13 39  1  0  0  0  0
 13 40  1  0  0  0  0
 13 41  1  0  0  0  0
 15 16  1  0  0  0  0
 15 17  2  0  0  0  0
 16 22  1  0  0  0  0
 17 20  1  0  0  0  0
 18 21  1  0  0  0  0
 19 43  1  0  0  0  0
 19 44  1  0  0  0  0
 19 45  1  0  0  0  0
 20 26  2  0  0  0  0
 20 27  1  0  0  0  0
 21 28  1  0  0  0  0
 22 24  2  0  0  0  0
 22 46  1  0  0  0  0
 23 25  2  0  0  0  0
 23 47  1  0  0  0  0
 24 48  1  0  0  0  0
 25 49  1  0  0  0  0
 26 29  1  0  0  0  0
 26 50  1  0  0  0  0
 27 30  2  0  0  0  0
 27 51  1  0  0  0  0
 28 52  1  0  0  0  0
 28 53  1  0  0  0  0
 28 54  1  0  0  0  0
 29 31  2  0  0  0  0
 29 55  1  0  0  0  0
 30 31  1  0  0  0  0
 30 56  1  0  0  0  0
M  END
> <PUBCHEM_COMPOUND_CID>
49830609

> <PUBCHEM_CONFORMER_RMSD>
1

> <PUBCHEM_CONFORMER_DIVERSEORDER>
1
13
48
53
46
62
21
69
66
31
38
16
8
29
50
42
68
33
44
67
28
26
61
3
20
19
15
52
56
18
2
41
49
30
34
27
5
55
4
43
59
24
64
32
7
58
40
37
57
45
23
6
11
54
36
60
63
12
65
9
10
25
39
51
70
47
14
35
17
22

> <PUBCHEM_MMFF94_PARTIAL_CHARGES>
37
1 -0.19
10 0.37
11 0.28
14 0.72
15 -0.2
16 0.36
17 0.17
18 0.1
19 0.28
2 -0.56
20 0.05
21 0.47
22 -0.15
23 -0.18
24 0.16
25 0.02
26 -0.15
27 -0.15
28 0.06
29 -0.15
3 -0.87
30 -0.15
31 0.19
4 0.33
42 0.4
46 0.15
47 0.15
48 0.15
49 0.15
5 -0.62
50 0.15
51 0.15
55 0.15
56 0.15
6 -0.57
7 -0.62
8 -0.62

> <PUBCHEM_EFFECTIVE_ROTOR_COUNT>
7

> <PUBCHEM_PHARMACOPHORE_FEATURES>
11
1 2 acceptor
1 3 donor
1 5 acceptor
1 8 acceptor
3 4 6 18 cation
3 9 12 13 hydrophobe
4 3 5 7 14 cation
5 4 6 15 17 18 rings
6 20 26 27 29 30 31 rings
6 4 8 18 21 23 25 rings
6 5 7 14 16 22 24 rings

> <PUBCHEM_HEAVY_ATOM_COUNT>
31

> <PUBCHEM_ATOM_DEF_STEREO_COUNT>
0

> <PUBCHEM_ATOM_UDEF_STEREO_COUNT>
0

> <PUBCHEM_BOND_DEF_STEREO_COUNT>
0

> <PUBCHEM_BOND_UDEF_STEREO_COUNT>
0

> <PUBCHEM_ISOTOPIC_ATOM_COUNT>
0

> <PUBCHEM_COMPONENT_COUNT>
1

> <PUBCHEM_CACTVS_TAUTO_COUNT>
3

> <PUBCHEM_CONFORMER_ID>
02F85AD100000001

> <PUBCHEM_MMFF94_ENERGY>
95.0386

> <PUBCHEM_FEATURE_SELFOVERLAP>
55.94

> <PUBCHEM_SHAPE_FINGERPRINT>
10258939 38 14288423185305138988
10816530 23 17983849271175081456
11370993 144 18200304541788335680
11552529 35 17619608612391690600
11578080 2 16589700146456465551
11582403 64 17203886379432630637
12293681 160 15813098350154098444
12422481 6 18261384512327405465
12553582 1 17531792675975707384
12633257 1 18198616829545967520
12741549 16 17123653680298245195
12788726 201 17399810787237363559
12839892 36 18264497355022487707
12925494 130 18197214746468344153
13004483 165 16978414168304624375
13402501 40 18338240362978777102
13583140 156 16628264683772076000
13692114 37 18340493391116672819
14020679 6 17630598131683512457
14739800 52 17631464371617626201
14840074 17 17968370247325626724
15420108 30 18341886373237256591
15484559 13 16018530248464470572
15775530 1 17539108576779877413
16110190 28 18115586080036087812
1813 80 16950560004189313348
21033648 29 18200868586857749584
22182313 1 17824538570310057765
23419403 2 17975687291065831813
23559900 14 18116731621044302119
23728640 28 18050845821157876154
3298306 158 18120070811766177670
3411729 13 18340208475585269353
3493558 16 17769941177544200649
5171179 24 17761477111517224637
5265222 85 18338811125477645100
5385378 56 18270410390848643001

> <PUBCHEM_SHAPE_MULTIPOLES>
594.94
11.68
4.74
2.16
0.72
5.15
0.36
-5.7
-8.26
2.53
1.26
1.07
-1.19
1.83

> <PUBCHEM_SHAPE_SELFOVERLAP>
1293.418

> <PUBCHEM_SHAPE_VOLUME>
328

> <PUBCHEM_COORDINATE_TYPE>
2
5
10

$$$$
