9881974
  -OEChem-10052115193D

 39 40  0     1  0  0  0  0  0999 V2000
    0.9736   -3.5987    0.1946 O   0  0  0  0  0  0  0  0  0  0  0  0
   -1.8665   -2.6632   -0.4204 O   0  0  0  0  0  0  0  0  0  0  0  0
    2.1299   -0.6027    0.1745 N   0  0  0  0  0  0  0  0  0  0  0  0
   -0.9958    0.4266   -0.5038 N   0  0  0  0  0  0  0  0  0  0  0  0
   -5.0270    1.2797    0.3333 N   0  0  0  0  0  0  0  0  0  0  0  0
    3.9186    1.0824   -0.1365 C   0  0  0  0  0  0  0  0  0  0  0  0
    2.4088    0.8229    0.1707 C   0  0  2  0  0  0  0  0  0  0  0  0
    4.2527    2.5844   -0.2202 C   0  0  0  0  0  0  0  0  0  0  0  0
    4.8015    0.4503    0.9597 C   0  0  0  0  0  0  0  0  0  0  0  0
    4.3002    0.4216   -1.4799 C   0  0  0  0  0  0  0  0  0  0  0  0
    1.9004    1.4062    1.4908 C   0  0  0  0  0  0  0  0  0  0  0  0
    0.9313   -1.0924   -0.0143 C   0  0  0  0  0  0  0  0  0  0  0  0
   -0.3295   -0.6755   -0.2880 C   0  0  0  0  0  0  0  0  0  0  0  0
    0.5277   -2.4947    0.0217 C   0  0  0  0  0  0  0  0  0  0  0  0
   -0.8461   -2.0423   -0.2759 C   0  0  0  0  0  0  0  0  0  0  0  0
   -2.3595    0.7157   -0.2206 C   0  0  0  0  0  0  0  0  0  0  0  0
   -3.0496    1.6133   -1.0166 C   0  0  0  0  0  0  0  0  0  0  0  0
   -2.9831    0.0957    0.8482 C   0  0  0  0  0  0  0  0  0  0  0  0
   -4.3755    1.8601   -0.6994 C   0  0  0  0  0  0  0  0  0  0  0  0
   -4.3120    0.4107    1.0821 C   0  0  0  0  0  0  0  0  0  0  0  0
    1.8414    1.2986   -0.6412 H   0  0  0  0  0  0  0  0  0  0  0  0
    3.6131    3.0857   -0.9548 H   0  0  0  0  0  0  0  0  0  0  0  0
    4.1168    3.0849    0.7438 H   0  0  0  0  0  0  0  0  0  0  0  0
    5.2941    2.7436   -0.5225 H   0  0  0  0  0  0  0  0  0  0  0  0
    4.6944   -0.6356    1.0315 H   0  0  0  0  0  0  0  0  0  0  0  0
    4.5947    0.8786    1.9456 H   0  0  0  0  0  0  0  0  0  0  0  0
    5.8618    0.6421    0.7520 H   0  0  0  0  0  0  0  0  0  0  0  0
    3.6735    0.8035   -2.2938 H   0  0  0  0  0  0  0  0  0  0  0  0
    4.1917   -0.6678   -1.4546 H   0  0  0  0  0  0  0  0  0  0  0  0
    5.3439    0.6333   -1.7404 H   0  0  0  0  0  0  0  0  0  0  0  0
    2.9032   -1.2206    0.3995 H   0  0  0  0  0  0  0  0  0  0  0  0
    2.0953    2.4805    1.5547 H   0  0  0  0  0  0  0  0  0  0  0  0
    2.3629    0.9211    2.3567 H   0  0  0  0  0  0  0  0  0  0  0  0
    0.8186    1.2773    1.5996 H   0  0  0  0  0  0  0  0  0  0  0  0
   -0.5028    1.2707   -0.7897 H   0  0  0  0  0  0  0  0  0  0  0  0
   -2.5824    2.1103   -1.8597 H   0  0  0  0  0  0  0  0  0  0  0  0
   -2.4743   -0.5951    1.5107 H   0  0  0  0  0  0  0  0  0  0  0  0
   -4.9675    2.5537   -1.2873 H   0  0  0  0  0  0  0  0  0  0  0  0
   -4.8521   -0.0390    1.9088 H   0  0  0  0  0  0  0  0  0  0  0  0
  1 14  2  0  0  0  0
  2 15  2  0  0  0  0
  3  7  1  0  0  0  0
  3 12  1  0  0  0  0
  3 31  1  0  0  0  0
  4 13  1  0  0  0  0
  4 16  1  0  0  0  0
  4 35  1  0  0  0  0
  5 19  2  0  0  0  0
  5 20  1  0  0  0  0
  6  7  1  0  0  0  0
  6  8  1  0  0  0  0
  6  9  1  0  0  0  0
  6 10  1  0  0  0  0
  7 11  1  0  0  0  0
  7 21  1  0  0  0  0
  8 22  1  0  0  0  0
  8 23  1  0  0  0  0
  8 24  1  0  0  0  0
  9 25  1  0  0  0  0
  9 26  1  0  0  0  0
  9 27  1  0  0  0  0
 10 28  1  0  0  0  0
 10 29  1  0  0  0  0
 10 30  1  0  0  0  0
 11 32  1  0  0  0  0
 11 33  1  0  0  0  0
 11 34  1  0  0  0  0
 12 13  2  0  0  0  0
 12 14  1  0  0  0  0
 13 15  1  0  0  0  0
 14 15  1  0  0  0  0
 16 17  2  0  0  0  0
 16 18  1  0  0  0  0
 17 19  1  0  0  0  0
 17 36  1  0  0  0  0
 18 20  2  0  0  0  0
 18 37  1  0  0  0  0
 19 38  1  0  0  0  0
 20 39  1  0  0  0  0
M  END
> <PUBCHEM_COMPOUND_CID>
9881974

> <PUBCHEM_CONFORMER_RMSD>
0.8

> <PUBCHEM_CONFORMER_DIVERSEORDER>
1
13
95
81
17
87
24
57
79
107
14
80
66
25
97
93
74
94
55
61
50
83
98
110
11
29
30
85
21
82
103
101
71
77
105
100
58
70
84
114
65
10
43
62
102
76
99
22
75
73
47
108
63
112
9
19
96
26
68
67
12
89
46
104
23
45
20
59
27
48
18
28
52
113
86
39
49
109
16
72
31
111
34
36
32
41
56
88
37
15
106
91
92
90
64
53
40
78
5
54
38
42
51
33
44
7
60
8
35
4
3
6
69
2

> <PUBCHEM_MMFF94_PARTIAL_CHARGES>
21
1 -0.57
12 0.03
13 0.03
14 0.64
15 0.64
16 0.1
17 -0.15
18 -0.15
19 0.16
2 -0.57
20 0.16
3 -0.87
31 0.4
35 0.4
36 0.15
37 0.15
38 0.15
39 0.15
4 -0.6
5 -0.62
7 0.37

> <PUBCHEM_EFFECTIVE_ROTOR_COUNT>
5

> <PUBCHEM_PHARMACOPHORE_FEATURES>
10
1 1 acceptor
1 2 acceptor
1 3 cation
1 3 donor
1 4 cation
1 4 donor
1 5 acceptor
4 12 13 14 15 rings
4 6 8 9 10 hydrophobe
6 5 16 17 18 19 20 rings

> <PUBCHEM_HEAVY_ATOM_COUNT>
20

> <PUBCHEM_ATOM_DEF_STEREO_COUNT>
0

> <PUBCHEM_ATOM_UDEF_STEREO_COUNT>
1

> <PUBCHEM_BOND_DEF_STEREO_COUNT>
0

> <PUBCHEM_BOND_UDEF_STEREO_COUNT>
0

> <PUBCHEM_ISOTOPIC_ATOM_COUNT>
0

> <PUBCHEM_COMPONENT_COUNT>
1

> <PUBCHEM_CACTVS_TAUTO_COUNT>
11

> <PUBCHEM_CONFORMER_ID>
0096C97600000001

> <PUBCHEM_MMFF94_ENERGY>
65.667

> <PUBCHEM_FEATURE_SELFOVERLAP>
50.746

> <PUBCHEM_SHAPE_FINGERPRINT>
10165383 225 18411426106726742305
10498660 4 18410570699633851901
10681291 71 18411143536469729941
12173636 292 18265328589685800894
12363563 72 9439405756586359380
12390115 104 18269008633413079752
12403259 118 17749104508585015717
12592029 89 18335706005323496154
12596602 18 15357707404740360297
12788726 201 17907567378753298390
12895836 83 18044114530022316204
13544653 18 11097854107488730412
13583140 156 16661187200816496085
14123255 52 18410009935755194828
15342168 16 18411702054607940429
17134986 127 18410009927513218622
17834072 32 18409731806732399348
1798214 55 18411135831425222284
1813 80 10809343295679109739
18186145 218 18202846560641256384
18222031 100 11169917182079215856
18785283 64 18262798458938656946
19784866 170 18187654578636972445
19784866 9 18338792308824611434
20261772 1 18187085091564206092
204376 136 18410856564230155981
20510252 161 18125441062310191642
20600515 1 16893939763673731938
20645477 56 18339646762640788960
21524375 3 18343860030567705222
23227448 37 18339644571690627197
23557571 272 17983024633243768468
23558518 356 17976251662505558928
23559900 14 17974000644623990835
25 1 18202566172401794490
25147074 1 18268688598257526151
283562 15 18122897900600662351
350125 39 18196092368318002577
3729539 64 18052281521873265966
458136 41 18339366270889816239
474 4 18412823564731087345
5104073 3 18263070189035123664
633830 44 18131075913168122236
6442390 28 18337117855310166523
7226269 152 18059566997745996568
7808743 9 18191870230904299260
81228 2 17762884863877676395
81539 233 18334857169208801619

> <PUBCHEM_SHAPE_MULTIPOLES>
384.91
9.91
3.03
1.1
0.23
2.54
0.07
-8.09
0.23
-0.15
-0.28
-0.26
-0.37
0.29

> <PUBCHEM_SHAPE_SELFOVERLAP>
811.842

> <PUBCHEM_SHAPE_VOLUME>
214.3

> <PUBCHEM_COORDINATE_TYPE>
2
5
10

$$$$
