10361853
  -OEChem-10052120443D

 45 48  0     0  0  0  0  0  0999 V2000
    4.6725   -1.8700    0.4373 O   0  0  0  0  0  0  0  0  0  0  0  0
    4.0375    2.7043    0.4856 O   0  0  0  0  0  0  0  0  0  0  0  0
   -1.7675   -2.9693   -2.3940 O   0  0  0  0  0  0  0  0  0  0  0  0
   -0.5746   -1.6828   -0.7993 N   0  0  0  0  0  0  0  0  0  0  0  0
   -0.9800    1.1242   -0.7727 N   0  0  0  0  0  0  0  0  0  0  0  0
    4.7457    0.4705    0.5556 N   0  0  0  0  0  0  0  0  0  0  0  0
    0.4886   -0.8215   -0.5093 C   0  0  0  0  0  0  0  0  0  0  0  0
    2.7692   -0.4996    0.0445 C   0  0  0  0  0  0  0  0  0  0  0  0
    0.2945    0.5752   -0.4940 C   0  0  0  0  0  0  0  0  0  0  0  0
    2.5781    0.8755    0.0596 C   0  0  0  0  0  0  0  0  0  0  0  0
    1.7424   -1.3765   -0.2370 C   0  0  0  0  0  0  0  0  0  0  0  0
    1.3502    1.4451   -0.2060 C   0  0  0  0  0  0  0  0  0  0  0  0
    4.1715   -0.7644    0.3651 C   0  0  0  0  0  0  0  0  0  0  0  0
    3.8559    1.5056    0.3903 C   0  0  0  0  0  0  0  0  0  0  0  0
   -1.4025   -2.1693    0.3040 C   0  0  0  0  0  0  0  0  0  0  0  0
   -0.8644   -2.1773   -2.1067 C   0  0  0  0  0  0  0  0  0  0  0  0
   -1.6226    2.2972   -0.3424 C   0  0  0  0  0  0  0  0  0  0  0  0
   -0.8090   -2.3099    1.5225 C   0  0  0  0  0  0  0  0  0  0  0  0
   -2.7093   -2.4472    0.0366 C   0  0  0  0  0  0  0  0  0  0  0  0
    0.0144   -1.6503   -3.2221 C   0  0  0  0  0  0  0  0  0  0  0  0
   -2.5506    2.9349   -1.1704 C   0  0  0  0  0  0  0  0  0  0  0  0
   -1.3372    2.8334    0.9164 C   0  0  0  0  0  0  0  0  0  0  0  0
   -1.5983   -2.7734    2.5749 C   0  0  0  0  0  0  0  0  0  0  0  0
   -3.4986   -2.9105    1.0892 C   0  0  0  0  0  0  0  0  0  0  0  0
   -2.9431   -3.0736    2.3583 C   0  0  0  0  0  0  0  0  0  0  0  0
   -3.1880    4.0999   -0.7432 C   0  0  0  0  0  0  0  0  0  0  0  0
   -1.9747    3.9983    1.3435 C   0  0  0  0  0  0  0  0  0  0  0  0
   -2.9001    4.6314    0.5137 C   0  0  0  0  0  0  0  0  0  0  0  0
    1.9082   -2.4485   -0.2514 H   0  0  0  0  0  0  0  0  0  0  0  0
    1.2377    2.5232   -0.2093 H   0  0  0  0  0  0  0  0  0  0  0  0
   -1.5380    0.5558   -1.4032 H   0  0  0  0  0  0  0  0  0  0  0  0
    5.7223    0.6036    0.7933 H   0  0  0  0  0  0  0  0  0  0  0  0
    0.2299   -2.1013    1.7399 H   0  0  0  0  0  0  0  0  0  0  0  0
   -3.2141   -2.2460   -0.8996 H   0  0  0  0  0  0  0  0  0  0  0  0
    1.0517   -1.9555   -3.0646 H   0  0  0  0  0  0  0  0  0  0  0  0
   -0.0551   -0.5614   -3.2821 H   0  0  0  0  0  0  0  0  0  0  0  0
   -0.3223   -2.0661   -4.1769 H   0  0  0  0  0  0  0  0  0  0  0  0
   -2.7834    2.5312   -2.1527 H   0  0  0  0  0  0  0  0  0  0  0  0
   -0.6393    2.3496    1.5944 H   0  0  0  0  0  0  0  0  0  0  0  0
   -1.1663   -2.9018    3.5631 H   0  0  0  0  0  0  0  0  0  0  0  0
   -4.5514   -3.1230    0.9270 H   0  0  0  0  0  0  0  0  0  0  0  0
   -3.5590   -3.4298    3.1789 H   0  0  0  0  0  0  0  0  0  0  0  0
   -3.9086    4.5928   -1.3891 H   0  0  0  0  0  0  0  0  0  0  0  0
   -1.7549    4.4095    2.3244 H   0  0  0  0  0  0  0  0  0  0  0  0
   -3.3973    5.5376    0.8469 H   0  0  0  0  0  0  0  0  0  0  0  0
  1 13  2  0  0  0  0
  2 14  2  0  0  0  0
  3 16  2  0  0  0  0
  4  7  1  0  0  0  0
  4 15  1  0  0  0  0
  4 16  1  0  0  0  0
  5  9  1  0  0  0  0
  5 17  1  0  0  0  0
  5 31  1  0  0  0  0
  6 13  1  0  0  0  0
  6 14  1  0  0  0  0
  6 32  1  0  0  0  0
  7  9  2  0  0  0  0
  7 11  1  0  0  0  0
  8 10  1  0  0  0  0
  8 11  2  0  0  0  0
  8 13  1  0  0  0  0
  9 12  1  0  0  0  0
 10 12  2  0  0  0  0
 10 14  1  0  0  0  0
 11 29  1  0  0  0  0
 12 30  1  0  0  0  0
 15 18  2  0  0  0  0
 15 19  1  0  0  0  0
 16 20  1  0  0  0  0
 17 21  2  0  0  0  0
 17 22  1  0  0  0  0
 18 23  1  0  0  0  0
 18 33  1  0  0  0  0
 19 24  2  0  0  0  0
 19 34  1  0  0  0  0
 20 35  1  0  0  0  0
 20 36  1  0  0  0  0
 20 37  1  0  0  0  0
 21 26  1  0  0  0  0
 21 38  1  0  0  0  0
 22 27  2  0  0  0  0
 22 39  1  0  0  0  0
 23 25  2  0  0  0  0
 23 40  1  0  0  0  0
 24 25  1  0  0  0  0
 24 41  1  0  0  0  0
 25 42  1  0  0  0  0
 26 28  2  0  0  0  0
 26 43  1  0  0  0  0
 27 28  1  0  0  0  0
 27 44  1  0  0  0  0
 28 45  1  0  0  0  0
M  END
> <PUBCHEM_COMPOUND_CID>
10361853

> <PUBCHEM_CONFORMER_RMSD>
0.8

> <PUBCHEM_CONFORMER_DIVERSEORDER>
1
5
6
11
21
9
19
18
13
7
2
20
16
8
15
12
10
3
17
4
14

> <PUBCHEM_MMFF94_PARTIAL_CHARGES>
42
1 -0.57
10 0.09
11 -0.15
12 -0.15
13 0.54
14 0.54
15 0.12
16 0.57
17 0.1
18 -0.15
19 -0.15
2 -0.57
20 0.06
21 -0.15
22 -0.15
23 -0.15
24 -0.15
25 -0.15
26 -0.15
27 -0.15
28 -0.15
29 0.15
3 -0.57
30 0.15
31 0.4
32 0.37
33 0.15
34 0.15
38 0.15
39 0.15
4 -0.29
40 0.15
41 0.15
42 0.15
43 0.15
44 0.15
45 0.15
5 -0.6
6 -0.49
7 0.12
8 0.09
9 0.1

> <PUBCHEM_EFFECTIVE_ROTOR_COUNT>
5.2

> <PUBCHEM_PHARMACOPHORE_FEATURES>
10
1 1 acceptor
1 2 acceptor
1 3 acceptor
1 5 cation
1 5 donor
1 6 donor
5 6 8 10 13 14 rings
6 15 18 19 23 24 25 rings
6 17 21 22 26 27 28 rings
6 7 8 9 10 11 12 rings

> <PUBCHEM_HEAVY_ATOM_COUNT>
28

> <PUBCHEM_ATOM_DEF_STEREO_COUNT>
0

> <PUBCHEM_ATOM_UDEF_STEREO_COUNT>
0

> <PUBCHEM_BOND_DEF_STEREO_COUNT>
0

> <PUBCHEM_BOND_UDEF_STEREO_COUNT>
0

> <PUBCHEM_ISOTOPIC_ATOM_COUNT>
0

> <PUBCHEM_COMPONENT_COUNT>
1

> <PUBCHEM_CACTVS_TAUTO_COUNT>
8

> <PUBCHEM_CONFORMER_ID>
009E1BFD00000001

> <PUBCHEM_MMFF94_ENERGY>
140.7793

> <PUBCHEM_FEATURE_SELFOVERLAP>
50.84

> <PUBCHEM_SHAPE_FINGERPRINT>
1100329 8 17613146378269383698
11297750 10 17623617143960898023
12160290 23 18410866459666547197
12293681 4 18335419093261462879
12422481 6 18198932282383172467
12553582 1 17978788240479142422
12655364 131 16329891475620549672
12741549 16 17390208657802604781
12788726 201 18264470918786462049
13134695 92 17977107087042342111
13135754 10 18261974989058815390
13140716 1 18264499545001972169
13149001 5 17550423667941789415
13583140 156 17472428020099480803
13911987 19 17396690356696124724
13965767 371 17629788865587591586
14400156 96 16887524140119284387
14790565 3 16894278477780654757
14866123 147 18043526106148805618
14955137 171 17402643103488801854
15420108 30 17191194471720689228
15775530 1 18054254058101329087
17138139 8 17981283921553159701
17980427 23 17841738471358916635
20739085 24 17545047464288837768
21049683 118 17978194241685555897
22182313 1 17916882218362984638
229495 10 18201726210233145554
23419403 2 14904189717459011623
23558518 356 18334855000519173636
3380486 145 17982157122099042317
3493558 16 17605273097946966461
352729 6 18201159836985249100
376196 1 17840009763611308012
394222 165 17763447427568871393
4058900 60 17687760332926757124
469060 322 17624392565745173944
474 4 17910667662056691444
5104073 3 18263063493576533848
79837 15 18265333902270903817
86090 222 17109651451738232193
9981440 41 17483350392732167208

> <PUBCHEM_SHAPE_MULTIPOLES>
543.68
6.92
6.32
2.18
7.14
1.26
-1.03
5.51
2.13
-8.37
1.97
-1.22
-2.59
1.45

> <PUBCHEM_SHAPE_SELFOVERLAP>
1213.343

> <PUBCHEM_SHAPE_VOLUME>
288.5

> <PUBCHEM_COORDINATE_TYPE>
2
5
10

$$$$
