10409523
  -OEChem-10062121563D

 43 46  0     0  0  0  0  0  0999 V2000
    8.0006    0.9255    1.8397 F   0  0  0  0  0  0  0  0  0  0  0  0
    9.1238    0.3783    0.0669 F   0  0  0  0  0  0  0  0  0  0  0  0
    8.1697   -1.1651    1.2654 F   0  0  0  0  0  0  0  0  0  0  0  0
   -6.6569   -1.7098   -0.5879 O   0  0  0  0  0  0  0  0  0  0  0  0
    1.6217    0.1118   -1.4574 O   0  0  0  0  0  0  0  0  0  0  0  0
    0.8287   -0.5269    0.6527 N   0  0  0  0  0  0  0  0  0  0  0  0
   -5.2958   -1.9751   -0.4976 N   0  0  0  0  0  0  0  0  0  0  0  0
    3.0963   -0.2339    0.3245 N   0  0  0  0  0  0  0  0  0  0  0  0
   -8.1033    0.1648   -0.2403 N   0  0  0  0  0  0  0  0  0  0  0  0
   -6.9169    2.1754    0.4625 N   0  0  0  0  0  0  0  0  0  0  0  0
   -4.5509    2.2358    0.7634 N   0  0  0  0  0  0  0  0  0  0  0  0
   -3.3117   -0.7487    0.0853 C   0  0  0  0  0  0  0  0  0  0  0  0
   -4.7323   -0.8250   -0.1091 C   0  0  0  0  0  0  0  0  0  0  0  0
   -5.6846    0.1960    0.0603 C   0  0  0  0  0  0  0  0  0  0  0  0
   -0.5516   -0.6006    0.4632 C   0  0  0  0  0  0  0  0  0  0  0  0
   -2.7626   -1.0349    1.3351 C   0  0  0  0  0  0  0  0  0  0  0  0
   -2.4808   -0.3885   -0.9757 C   0  0  0  0  0  0  0  0  0  0  0  0
   -1.3825   -0.9607    1.5241 C   0  0  0  0  0  0  0  0  0  0  0  0
   -1.1007   -0.3145   -0.7866 C   0  0  0  0  0  0  0  0  0  0  0  0
   -6.8888   -0.4098   -0.2537 C   0  0  0  0  0  0  0  0  0  0  0  0
   -5.7237    1.5360    0.4284 C   0  0  0  0  0  0  0  0  0  0  0  0
    4.3565    0.0367   -0.2591 C   0  0  0  0  0  0  0  0  0  0  0  0
    6.7416    0.1983   -0.0596 C   0  0  0  0  0  0  0  0  0  0  0  0
    5.4995   -0.0689    0.5160 C   0  0  0  0  0  0  0  0  0  0  0  0
    1.8326   -0.1840   -0.2857 C   0  0  0  0  0  0  0  0  0  0  0  0
    4.4206    0.4022   -1.5936 C   0  0  0  0  0  0  0  0  0  0  0  0
    6.8232    0.5674   -1.4023 C   0  0  0  0  0  0  0  0  0  0  0  0
    5.6627    0.6694   -2.1693 C   0  0  0  0  0  0  0  0  0  0  0  0
    7.9827    0.0890    0.7600 C   0  0  0  0  0  0  0  0  0  0  0  0
   -8.0170    1.4598    0.1306 C   0  0  0  0  0  0  0  0  0  0  0  0
   -3.3964   -1.3166    2.1726 H   0  0  0  0  0  0  0  0  0  0  0  0
   -2.8943   -0.1619   -1.9557 H   0  0  0  0  0  0  0  0  0  0  0  0
   -0.9683   -1.1861    2.5036 H   0  0  0  0  0  0  0  0  0  0  0  0
   -0.5265   -0.0287   -1.6562 H   0  0  0  0  0  0  0  0  0  0  0  0
    1.1533   -0.7494    1.5905 H   0  0  0  0  0  0  0  0  0  0  0  0
    5.4370   -0.3566    1.5626 H   0  0  0  0  0  0  0  0  0  0  0  0
    3.1176   -0.4964    1.3067 H   0  0  0  0  0  0  0  0  0  0  0  0
    3.5728    0.5039   -2.2541 H   0  0  0  0  0  0  0  0  0  0  0  0
    7.7814    0.7794   -1.8685 H   0  0  0  0  0  0  0  0  0  0  0  0
    5.7276    0.9569   -3.2149 H   0  0  0  0  0  0  0  0  0  0  0  0
   -8.9561    2.0015    0.1682 H   0  0  0  0  0  0  0  0  0  0  0  0
   -4.6238    3.2100    1.0246 H   0  0  0  0  0  0  0  0  0  0  0  0
   -3.6473    1.7863    0.7461 H   0  0  0  0  0  0  0  0  0  0  0  0
  1 29  1  0  0  0  0
  2 29  1  0  0  0  0
  3 29  1  0  0  0  0
  4  7  1  0  0  0  0
  4 20  1  0  0  0  0
  5 25  2  0  0  0  0
  6 15  1  0  0  0  0
  6 25  1  0  0  0  0
  6 35  1  0  0  0  0
  7 13  2  0  0  0  0
  8 22  1  0  0  0  0
  8 25  1  0  0  0  0
  8 37  1  0  0  0  0
  9 20  2  0  0  0  0
  9 30  1  0  0  0  0
 10 21  1  0  0  0  0
 10 30  2  0  0  0  0
 11 21  1  0  0  0  0
 11 42  1  0  0  0  0
 11 43  1  0  0  0  0
 12 13  1  0  0  0  0
 12 16  2  0  0  0  0
 12 17  1  0  0  0  0
 13 14  1  0  0  0  0
 14 20  1  0  0  0  0
 14 21  2  0  0  0  0
 15 18  2  0  0  0  0
 15 19  1  0  0  0  0
 16 18  1  0  0  0  0
 16 31  1  0  0  0  0
 17 19  2  0  0  0  0
 17 32  1  0  0  0  0
 18 33  1  0  0  0  0
 19 34  1  0  0  0  0
 22 24  1  0  0  0  0
 22 26  2  0  0  0  0
 23 24  2  0  0  0  0
 23 27  1  0  0  0  0
 23 29  1  0  0  0  0
 24 36  1  0  0  0  0
 26 28  1  0  0  0  0
 26 38  1  0  0  0  0
 27 28  2  0  0  0  0
 27 39  1  0  0  0  0
 28 40  1  0  0  0  0
 30 41  1  0  0  0  0
M  END
> <PUBCHEM_COMPOUND_CID>
10409523

> <PUBCHEM_CONFORMER_RMSD>
0.8

> <PUBCHEM_CONFORMER_DIVERSEORDER>
1
15
14
16
21
7
20
19
11
6
4
18
22
17
23
5
3
12
13
8
10
2
9

> <PUBCHEM_MMFF94_PARTIAL_CHARGES>
42
1 -0.34
10 -0.62
11 -0.9
12 0.05
13 0.23
15 0.12
16 -0.15
17 -0.15
18 -0.15
19 -0.15
2 -0.34
20 0.4
21 0.41
22 0.12
23 -0.14
24 -0.15
25 0.69
26 -0.15
27 -0.15
28 -0.15
29 1.16
3 -0.34
30 0.47
31 0.15
32 0.15
33 0.15
34 0.15
35 0.37
36 0.15
37 0.37
38 0.15
39 0.15
4 -0.02
40 0.15
41 0.15
42 0.4
43 0.4
5 -0.57
6 -0.55
7 -0.41
8 -0.55
9 -0.57

> <PUBCHEM_EFFECTIVE_ROTOR_COUNT>
6

> <PUBCHEM_PHARMACOPHORE_FEATURES>
11
1 11 cation
1 11 donor
1 5 acceptor
1 6 donor
1 7 acceptor
1 8 donor
3 9 10 30 cation
5 4 7 13 14 20 rings
6 12 15 16 17 18 19 rings
6 22 23 24 26 27 28 rings
6 9 10 14 20 21 30 rings

> <PUBCHEM_HEAVY_ATOM_COUNT>
30

> <PUBCHEM_ATOM_DEF_STEREO_COUNT>
0

> <PUBCHEM_ATOM_UDEF_STEREO_COUNT>
0

> <PUBCHEM_BOND_DEF_STEREO_COUNT>
0

> <PUBCHEM_BOND_UDEF_STEREO_COUNT>
0

> <PUBCHEM_ISOTOPIC_ATOM_COUNT>
0

> <PUBCHEM_COMPONENT_COUNT>
1

> <PUBCHEM_CACTVS_TAUTO_COUNT>
23

> <PUBCHEM_CONFORMER_ID>
009ED63300000001

> <PUBCHEM_MMFF94_ENERGY>
82.6476

> <PUBCHEM_FEATURE_SELFOVERLAP>
55.988

> <PUBCHEM_SHAPE_FINGERPRINT>
10299344 5 18040152924580196542
10391435 84 15625933270504507246
11135926 11 16877935045129865443
11315181 36 18113621214344847295
11456790 92 17530967981856671632
12082328 90 18342174475480315423
12089408 11 18113900480779992166
12838862 33 15841260481248155006
13885169 127 18342739606770415243
13914758 101 18411421695968941602
14118638 360 15123521285358690266
14251764 18 18040998445038088886
14251764 46 18040434400015836506
14344974 52 17917986201500042997
14444916 359 14634868630617657528
150020 25 17346883329633356600
15131766 46 17698431463195749600
15183329 4 18412834581200849813
15198563 99 16486706761705018625
15328684 2 18189043210077993136
15352257 5 11169908386118556272
15419008 47 17346876736842994024
15419008 91 17632565063849724864
15461852 350 18271811254371864678
15510794 2 17346883355324072279
1577012 14 17168433765551489846
15849732 13 17203610397428895765
17093844 174 18130788975778870899
20554085 129 17988916769959865722
21095086 128 9655581812261710328
21130935 74 17313673762649360122
21150785 3 12391511984144549600
21792961 116 16988568974262381638
23559900 14 17024032751074534396
2835820 82 17314498237815878602
4073 2 18187654608807998955
4093350 32 18339078195023664874
4339292 15 17631724002728604207
437795 160 18339916129672390387
44280117 145 17059769027557927589
44555599 121 18040444312326122380
44802255 64 17632855301334601501
44880568 143 17560531624349543776
5381727 24 17458347455851813515
5758199 1 18040154015496758131
5969126 39 14117523104287167963
6201320 215 18269550542417378385
67123 10 8502652615378907810

> <PUBCHEM_SHAPE_MULTIPOLES>
553.94
29.93
1.49
1.39
23.12
0.06
0.13
5.2
5.46
-0.89
0.13
0.01
0.29
-3.27

> <PUBCHEM_SHAPE_SELFOVERLAP>
1231.961

> <PUBCHEM_SHAPE_VOLUME>
294.4

> <PUBCHEM_COORDINATE_TYPE>
2
5
10

$$$$
