49830440
  -OEChem-10062121543D

 61 65  0     1  0  0  0  0  0999 V2000
   -4.8366   -1.8191   -2.4091 F   0  0  0  0  0  0  0  0  0  0  0  0
    3.0896    0.0510   -1.7859 O   0  0  0  0  0  0  0  0  0  0  0  0
   -5.0338    0.5016   -1.2425 O   0  0  0  0  0  0  0  0  0  0  0  0
    1.3326   -2.5689    0.9076 N   0  0  0  0  0  0  0  0  0  0  0  0
    6.4383   -1.4055   -1.7072 N   0  0  0  0  0  0  0  0  0  0  0  0
    2.4098    3.5957   -1.1875 N   0  0  0  0  0  0  0  0  0  0  0  0
   -4.8908    2.2295    1.2250 N   0  0  0  0  0  0  0  0  0  0  0  0
    4.8197   -1.8455    0.1012 C   0  0  0  0  0  0  0  0  0  0  0  0
    5.0124   -1.3676   -1.3680 C   0  0  1  0  0  0  0  0  0  0  0  0
    3.4234   -1.8994    0.5801 C   0  0  0  0  0  0  0  0  0  0  0  0
    2.7843   -0.9594    1.4360 C   0  0  0  0  0  0  0  0  0  0  0  0
    4.4990    0.0585   -1.6014 C   0  0  0  0  0  0  0  0  0  0  0  0
    1.4736   -1.4027    1.6256 C   0  0  0  0  0  0  0  0  0  0  0  0
    2.5055   -2.8771    0.2724 C   0  0  0  0  0  0  0  0  0  0  0  0
    3.1963    0.2298    2.0696 C   0  0  0  0  0  0  0  0  0  0  0  0
    0.5507   -0.7135    2.4203 C   0  0  0  0  0  0  0  0  0  0  0  0
    2.2840    0.9298    2.8675 C   0  0  0  0  0  0  0  0  0  0  0  0
    0.9820    0.4636    3.0388 C   0  0  0  0  0  0  0  0  0  0  0  0
    2.4144    1.1905   -1.4336 C   0  0  0  0  0  0  0  0  0  0  0  0
    0.4406    2.3074   -0.6322 C   0  0  0  0  0  0  0  0  0  0  0  0
   -0.9234    2.2815   -0.1593 C   0  0  0  0  0  0  0  0  0  0  0  0
    1.1007    1.1343   -0.9814 C   0  0  0  0  0  0  0  0  0  0  0  0
   -3.1144    1.2636   -0.1446 C   0  0  0  0  0  0  0  0  0  0  0  0
   -1.7964    1.2870   -0.6004 C   0  0  0  0  0  0  0  0  0  0  0  0
    3.0187    2.4346   -1.5177 C   0  0  0  0  0  0  0  0  0  0  0  0
   -1.3687    3.2530    0.7372 C   0  0  0  0  0  0  0  0  0  0  0  0
   -3.5596    2.2349    0.7521 C   0  0  0  0  0  0  0  0  0  0  0  0
    1.1333    3.5015   -0.7524 C   0  0  0  0  0  0  0  0  0  0  0  0
   -2.6867    3.2296    1.1931 C   0  0  0  0  0  0  0  0  0  0  0  0
   -4.0016    0.2109   -0.6232 C   0  0  0  0  0  0  0  0  0  0  0  0
   -3.7172   -1.2365   -0.3962 C   0  0  0  0  0  0  0  0  0  0  0  0
   -4.1562   -2.1899   -1.3148 C   0  0  0  0  0  0  0  0  0  0  0  0
   -3.0104   -1.6348    0.7385 C   0  0  0  0  0  0  0  0  0  0  0  0
   -3.8885   -3.5417   -1.0986 C   0  0  0  0  0  0  0  0  0  0  0  0
   -2.7430   -2.9866    0.9547 C   0  0  0  0  0  0  0  0  0  0  0  0
   -3.1819   -3.9401    0.0363 C   0  0  0  0  0  0  0  0  0  0  0  0
    5.2536   -2.8509    0.2002 H   0  0  0  0  0  0  0  0  0  0  0  0
    5.4163   -1.2080    0.7676 H   0  0  0  0  0  0  0  0  0  0  0  0
    4.4757   -2.0572   -2.0320 H   0  0  0  0  0  0  0  0  0  0  0  0
    4.9385    0.4693   -2.5196 H   0  0  0  0  0  0  0  0  0  0  0  0
    4.8080    0.6906   -0.7579 H   0  0  0  0  0  0  0  0  0  0  0  0
    2.5798   -3.7637   -0.3418 H   0  0  0  0  0  0  0  0  0  0  0  0
    0.4847   -3.1165    0.8561 H   0  0  0  0  0  0  0  0  0  0  0  0
    4.2061    0.6102    1.9460 H   0  0  0  0  0  0  0  0  0  0  0  0
    6.7921   -2.3542   -1.5907 H   0  0  0  0  0  0  0  0  0  0  0  0
    6.5637   -1.1731   -2.6917 H   0  0  0  0  0  0  0  0  0  0  0  0
   -0.4601   -1.0780    2.5611 H   0  0  0  0  0  0  0  0  0  0  0  0
    2.5955    1.8487    3.3570 H   0  0  0  0  0  0  0  0  0  0  0  0
    0.2895    1.0233    3.6623 H   0  0  0  0  0  0  0  0  0  0  0  0
    0.6304    0.1585   -0.9001 H   0  0  0  0  0  0  0  0  0  0  0  0
   -1.4854    0.5386   -1.3257 H   0  0  0  0  0  0  0  0  0  0  0  0
    4.0308    2.5715   -1.8836 H   0  0  0  0  0  0  0  0  0  0  0  0
   -0.7162    4.0289    1.1282 H   0  0  0  0  0  0  0  0  0  0  0  0
    0.6895    4.4667   -0.5296 H   0  0  0  0  0  0  0  0  0  0  0  0
   -3.0194    3.9888    1.8965 H   0  0  0  0  0  0  0  0  0  0  0  0
   -5.5420    1.5168    0.9255 H   0  0  0  0  0  0  0  0  0  0  0  0
   -5.1948    2.9406    1.8771 H   0  0  0  0  0  0  0  0  0  0  0  0
   -2.6735   -0.9142    1.4778 H   0  0  0  0  0  0  0  0  0  0  0  0
   -4.2305   -4.2839   -1.8139 H   0  0  0  0  0  0  0  0  0  0  0  0
   -2.1955   -3.2971    1.8399 H   0  0  0  0  0  0  0  0  0  0  0  0
   -2.9740   -4.9927    0.2049 H   0  0  0  0  0  0  0  0  0  0  0  0
  1 32  1  0  0  0  0
  2 12  1  0  0  0  0
  2 19  1  0  0  0  0
  3 30  2  0  0  0  0
  4 13  1  0  0  0  0
  4 14  1  0  0  0  0
  4 43  1  0  0  0  0
  5  9  1  0  0  0  0
  5 45  1  0  0  0  0
  5 46  1  0  0  0  0
  6 25  1  0  0  0  0
  6 28  2  0  0  0  0
  7 27  1  0  0  0  0
  7 56  1  0  0  0  0
  7 57  1  0  0  0  0
  8  9  1  0  0  0  0
  8 10  1  0  0  0  0
  8 37  1  0  0  0  0
  8 38  1  0  0  0  0
  9 12  1  0  0  0  0
  9 39  1  0  0  0  0
 10 11  1  0  0  0  0
 10 14  2  0  0  0  0
 11 13  1  0  0  0  0
 11 15  2  0  0  0  0
 12 40  1  0  0  0  0
 12 41  1  0  0  0  0
 13 16  2  0  0  0  0
 14 42  1  0  0  0  0
 15 17  1  0  0  0  0
 15 44  1  0  0  0  0
 16 18  1  0  0  0  0
 16 47  1  0  0  0  0
 17 18  2  0  0  0  0
 17 48  1  0  0  0  0
 18 49  1  0  0  0  0
 19 22  1  0  0  0  0
 19 25  2  0  0  0  0
 20 21  1  0  0  0  0
 20 22  2  0  0  0  0
 20 28  1  0  0  0  0
 21 24  2  0  0  0  0
 21 26  1  0  0  0  0
 22 50  1  0  0  0  0
 23 24  1  0  0  0  0
 23 27  2  0  0  0  0
 23 30  1  0  0  0  0
 24 51  1  0  0  0  0
 25 52  1  0  0  0  0
 26 29  2  0  0  0  0
 26 53  1  0  0  0  0
 27 29  1  0  0  0  0
 28 54  1  0  0  0  0
 29 55  1  0  0  0  0
 30 31  1  0  0  0  0
 31 32  1  0  0  0  0
 31 33  2  0  0  0  0
 32 34  2  0  0  0  0
 33 35  1  0  0  0  0
 33 58  1  0  0  0  0
 34 36  1  0  0  0  0
 34 59  1  0  0  0  0
 35 36  2  0  0  0  0
 35 60  1  0  0  0  0
 36 61  1  0  0  0  0
M  END
> <PUBCHEM_COMPOUND_CID>
49830440

> <PUBCHEM_CONFORMER_RMSD>
1.4

> <PUBCHEM_CONFORMER_DIVERSEORDER>
1
213
108
358
195
377
313
131
254
352
323
374
259
361
89
47
217
110
310
96
234
143
169
164
299
20
332
375
280
276
78
275
221
282
249
346
68
271
151
335
372
170
356
65
231
258
222
74
263
338
308
281
239
343
298
34
334
122
302
203
342
130
252
101
85
247
378
290
371
241
184
55
331
16
232
145
225
175
318
303
211
79
363
12
165
183
379
207
209
289
227
219
242
81
98
268
380
214
228
119
229
322
362
288
57
339
118
9
157
320
328
291
66
40
287
307
152
125
238
279
292
351
319
153
28
365
161
272
355
340
283
10
359
188
104
204
159
350
243
202
215
3
369
366
102
173
197
199
321
218
19
191
126
314
326
260
344
297
23
138
210
257
253
129
266
293
99
336
4
33
7
107
357
158
224
72
327
137
376
286
63
25
240
135
245
162
49
26
147
201
39
206
53
133
367
278
140
187
304
35
87
100
64
189
15
270
226
18
274
296
27
176
233
235
11
277
237
216
364
180
127
181
223
284
61
5
347
264
306
186
174
86
337
150
69
172
62
301
128
114
230
171
324
325
92
41
37
2
196
115
185
154
330
193
261
163
246
50
262
141
30
178
56
295
52
45
77
167
200
97
329
212
109
349
179
132
248
166
360
251
82
373
341
255
60
205
368
139
198
106
111
285
177
6
120
105
300
317
182
46
42
354
73
136
14
220
144
250
58
148
94
273
17
84
353
156
269
305
103
256
44
91
155
190
134
316
117
76
83
36
311
13
244
168
116
43
333
124
70
208
80
192
93
142
294
315
112
267
194
71
309
312
345
348
38
48
160
236
370
90
31
88
123
146
121
95
54
265
21
149
29
32
67
8
24
22
75
113
51
59

> <PUBCHEM_MMFF94_PARTIAL_CHARGES>
53
1 -0.19
10 -0.18
12 0.28
13 -0.15
14 -0.3
15 -0.15
16 -0.15
17 -0.15
18 -0.15
19 0.08
2 -0.36
22 -0.15
23 0.09
24 -0.15
25 0.16
26 -0.15
27 0.1
28 0.16
29 -0.15
3 -0.57
30 0.4
31 0.09
32 0.19
33 -0.15
34 -0.15
35 -0.15
36 -0.15
4 0.03
42 0.15
43 0.27
44 0.15
45 0.36
46 0.36
47 0.15
48 0.15
49 0.15
5 -0.99
50 0.15
51 0.15
52 0.15
53 0.15
54 0.15
55 0.15
56 0.4
57 0.4
58 0.15
59 0.15
6 -0.62
60 0.15
61 0.15
7 -0.9
8 0.18
9 0.27

> <PUBCHEM_EFFECTIVE_ROTOR_COUNT>
8

> <PUBCHEM_PHARMACOPHORE_FEATURES>
14
1 2 acceptor
1 3 acceptor
1 4 cation
1 4 donor
1 5 cation
1 5 donor
1 6 acceptor
1 7 cation
1 7 donor
5 4 10 11 13 14 rings
6 11 13 15 16 17 18 rings
6 21 23 24 26 27 29 rings
6 31 32 33 34 35 36 rings
6 6 19 20 22 25 28 rings

> <PUBCHEM_HEAVY_ATOM_COUNT>
36

> <PUBCHEM_ATOM_DEF_STEREO_COUNT>
0

> <PUBCHEM_ATOM_UDEF_STEREO_COUNT>
1

> <PUBCHEM_BOND_DEF_STEREO_COUNT>
0

> <PUBCHEM_BOND_UDEF_STEREO_COUNT>
0

> <PUBCHEM_ISOTOPIC_ATOM_COUNT>
0

> <PUBCHEM_COMPONENT_COUNT>
1

> <PUBCHEM_CACTVS_TAUTO_COUNT>
5

> <PUBCHEM_CONFORMER_ID>
02F85A2800000001

> <PUBCHEM_MMFF94_ENERGY>
112.3485

> <PUBCHEM_FEATURE_SELFOVERLAP>
71.14

> <PUBCHEM_SHAPE_FINGERPRINT>
11578080 2 16127824105478962529
12156800 1 16684267371924235536
12553582 1 18187645747905020213
12788726 201 18272376378206725481
13383661 66 17252325587506319067
14705955 166 16772111315600403489
15001296 14 18189331445517427287
161222 10 18189031184385205049
17809404 112 18052783070741783255
17909252 39 18266750266831892858
19319366 153 17314521326478172035
20764821 26 18335425698361689827
22393880 68 17968371363821718037
23559900 14 18340480153562625957
238 59 16950281844737268752
463206 1 18260558796433291060
513532 50 17624127609112580059
5895379 119 18409444812717204842
6287921 2 18410566267327641272

> <PUBCHEM_SHAPE_MULTIPOLES>
701.93
10.88
5.02
2.46
0.57
0.1
1.2
-5.85
-5.25
-3.33
-0.55
1.68
0.08
-2.11

> <PUBCHEM_SHAPE_SELFOVERLAP>
1562.246

> <PUBCHEM_SHAPE_VOLUME>
375.2

> <PUBCHEM_COORDINATE_TYPE>
2
5
10

$$$$
