44353130
  -OEChem-10062121593D

 71 78  0     1  0  0  0  0  0999 V2000
   -1.3571   -0.5940    1.9228 O   0  0  0  0  0  0  0  0  0  0  0  0
   -2.2703    0.4010   -1.2323 O   0  0  0  0  0  0  0  0  0  0  0  0
    5.5460   -0.8238   -0.6057 O   0  0  0  0  0  0  0  0  0  0  0  0
   -4.2760   -1.5352   -0.8718 N   0  3  0  0  0  0  0  0  0  0  0  0
   -0.6143    1.2502    0.6977 N   0  0  0  0  0  0  0  0  0  0  0  0
    0.2614   -1.6163    0.6085 N   0  0  0  0  0  0  0  0  0  0  0  0
    5.2675    1.4984   -0.6794 N   0  0  0  0  0  0  0  0  0  0  0  0
   -3.3298   -1.2062    0.2241 C   0  0  2  0  0  0  0  0  0  0  0  0
   -1.7942    0.5553    1.1925 C   0  0  1  0  0  0  0  0  0  0  0  0
   -2.8306    0.2261    0.0751 C   0  0  1  0  0  0  0  0  0  0  0  0
   -2.1561   -2.1718    0.1831 C   0  0  0  0  0  0  0  0  0  0  0  0
   -1.0617   -1.7454    1.1696 C   0  0  2  0  0  0  0  0  0  0  0  0
    0.6648    0.8167    0.4398 C   0  0  0  0  0  0  0  0  0  0  0  0
    1.0820   -0.5451    0.3953 C   0  0  0  0  0  0  0  0  0  0  0  0
   -2.4980    1.3285    2.3339 C   0  0  0  0  0  0  0  0  0  0  0  0
   -5.1840   -0.3382   -1.1854 C   0  0  0  0  0  0  0  0  0  0  0  0
    1.7001    1.7713    0.1119 C   0  0  0  0  0  0  0  0  0  0  0  0
   -0.5148    2.6083    0.3570 C   0  0  0  0  0  0  0  0  0  0  0  0
    2.4790   -0.7540    0.0518 C   0  0  0  0  0  0  0  0  0  0  0  0
   -5.1682   -2.7221   -0.4834 C   0  0  0  0  0  0  0  0  0  0  0  0
   -3.5173   -1.9076   -2.1530 C   0  0  0  0  0  0  0  0  0  0  0  0
    1.1176   -2.6910    0.3536 C   0  0  0  0  0  0  0  0  0  0  0  0
    0.8466    2.9539    0.1050 C   0  0  0  0  0  0  0  0  0  0  0  0
    3.0489    1.5553   -0.1525 C   0  0  0  0  0  0  0  0  0  0  0  0
    2.4270   -2.2212    0.0374 C   0  0  0  0  0  0  0  0  0  0  0  0
    3.4416    0.2261   -0.1790 C   0  0  0  0  0  0  0  0  0  0  0  0
   -5.9741    0.0256    0.0528 C   0  0  0  0  0  0  0  0  0  0  0  0
    4.1944    2.4510   -0.4864 C   0  0  0  0  0  0  0  0  0  0  0  0
   -1.5199    3.5904    0.2317 C   0  0  0  0  0  0  0  0  0  0  0  0
    0.8307   -4.0717    0.3955 C   0  0  0  0  0  0  0  0  0  0  0  0
    4.8642    0.1777   -0.5094 C   0  0  0  0  0  0  0  0  0  0  0  0
    1.1559    4.3085   -0.1788 C   0  0  0  0  0  0  0  0  0  0  0  0
   -2.2101    1.7741   -1.5974 C   0  0  0  0  0  0  0  0  0  0  0  0
    3.4158   -3.2000   -0.2384 C   0  0  0  0  0  0  0  0  0  0  0  0
   -1.1731    4.9117   -0.0604 C   0  0  0  0  0  0  0  0  0  0  0  0
    0.1503    5.2724   -0.2477 C   0  0  0  0  0  0  0  0  0  0  0  0
    1.8388   -4.9939    0.1178 C   0  0  0  0  0  0  0  0  0  0  0  0
    3.1169   -4.5648   -0.1960 C   0  0  0  0  0  0  0  0  0  0  0  0
   -3.8496   -1.3213    1.1840 H   0  0  0  0  0  0  0  0  0  0  0  0
   -3.6397    0.9492    0.1929 H   0  0  0  0  0  0  0  0  0  0  0  0
   -2.4823   -3.1887    0.4333 H   0  0  0  0  0  0  0  0  0  0  0  0
   -1.6627   -2.2436   -0.7896 H   0  0  0  0  0  0  0  0  0  0  0  0
   -0.9763   -2.5411    1.9206 H   0  0  0  0  0  0  0  0  0  0  0  0
   -1.7713    1.6711    3.0810 H   0  0  0  0  0  0  0  0  0  0  0  0
   -3.1988    0.6718    2.8662 H   0  0  0  0  0  0  0  0  0  0  0  0
   -3.0750    2.1924    2.0044 H   0  0  0  0  0  0  0  0  0  0  0  0
   -4.6205    0.4900   -1.6148 H   0  0  0  0  0  0  0  0  0  0  0  0
   -5.8793   -0.6613   -1.9712 H   0  0  0  0  0  0  0  0  0  0  0  0
   -5.9410   -2.8440   -1.2483 H   0  0  0  0  0  0  0  0  0  0  0  0
   -4.5504   -3.6238   -0.4409 H   0  0  0  0  0  0  0  0  0  0  0  0
   -5.6120   -2.5455    0.4996 H   0  0  0  0  0  0  0  0  0  0  0  0
   -4.2680   -1.9808   -2.9499 H   0  0  0  0  0  0  0  0  0  0  0  0
   -2.7829   -1.1785   -2.4750 H   0  0  0  0  0  0  0  0  0  0  0  0
   -3.0872   -2.9096   -2.0552 H   0  0  0  0  0  0  0  0  0  0  0  0
   -6.7697   -0.7007    0.2497 H   0  0  0  0  0  0  0  0  0  0  0  0
   -5.4090    0.1554    0.9766 H   0  0  0  0  0  0  0  0  0  0  0  0
   -6.4879    0.9768   -0.1313 H   0  0  0  0  0  0  0  0  0  0  0  0
    4.0375    3.0009   -1.4175 H   0  0  0  0  0  0  0  0  0  0  0  0
    4.4544    3.1204    0.3370 H   0  0  0  0  0  0  0  0  0  0  0  0
   -2.5590    3.3974    0.4690 H   0  0  0  0  0  0  0  0  0  0  0  0
   -0.1659   -4.4289    0.6385 H   0  0  0  0  0  0  0  0  0  0  0  0
    2.1838    4.6069   -0.3692 H   0  0  0  0  0  0  0  0  0  0  0  0
   -2.5702    1.7567   -2.6389 H   0  0  0  0  0  0  0  0  0  0  0  0
   -1.1976    2.1241   -1.7845 H   0  0  0  0  0  0  0  0  0  0  0  0
   -2.9804    2.4014   -1.1556 H   0  0  0  0  0  0  0  0  0  0  0  0
    4.4292   -2.9113   -0.4934 H   0  0  0  0  0  0  0  0  0  0  0  0
    6.2179    1.7651   -0.9161 H   0  0  0  0  0  0  0  0  0  0  0  0
   -1.9508    5.6691   -0.1148 H   0  0  0  0  0  0  0  0  0  0  0  0
    0.4066    6.3048   -0.4675 H   0  0  0  0  0  0  0  0  0  0  0  0
    1.6171   -6.0572    0.1483 H   0  0  0  0  0  0  0  0  0  0  0  0
    3.8948   -5.2919   -0.4123 H   0  0  0  0  0  0  0  0  0  0  0  0
  1  9  1  0  0  0  0
  1 12  1  0  0  0  0
  2 10  1  0  0  0  0
  2 33  1  0  0  0  0
  3 31  2  0  0  0  0
  4  8  1  0  0  0  0
  4 16  1  0  0  0  0
  4 20  1  0  0  0  0
  4 21  1  0  0  0  0
  5  9  1  0  0  0  0
  5 13  1  0  0  0  0
  5 18  1  0  0  0  0
  6 12  1  0  0  0  0
  6 14  1  0  0  0  0
  6 22  1  0  0  0  0
  7 28  1  0  0  0  0
  7 31  1  0  0  0  0
  7 67  1  0  0  0  0
  8 10  1  0  0  0  0
  8 11  1  0  0  0  0
  8 39  1  0  0  0  0
  9 10  1  0  0  0  0
  9 15  1  0  0  0  0
 10 40  1  0  0  0  0
 11 12  1  0  0  0  0
 11 41  1  0  0  0  0
 11 42  1  0  0  0  0
 12 43  1  0  0  0  0
 13 14  2  0  0  0  0
 13 17  1  0  0  0  0
 14 19  1  0  0  0  0
 15 44  1  0  0  0  0
 15 45  1  0  0  0  0
 15 46  1  0  0  0  0
 16 27  1  0  0  0  0
 16 47  1  0  0  0  0
 16 48  1  0  0  0  0
 17 23  1  0  0  0  0
 17 24  2  0  0  0  0
 18 23  1  0  0  0  0
 18 29  2  0  0  0  0
 19 25  1  0  0  0  0
 19 26  2  0  0  0  0
 20 49  1  0  0  0  0
 20 50  1  0  0  0  0
 20 51  1  0  0  0  0
 21 52  1  0  0  0  0
 21 53  1  0  0  0  0
 21 54  1  0  0  0  0
 22 25  1  0  0  0  0
 22 30  2  0  0  0  0
 23 32  2  0  0  0  0
 24 26  1  0  0  0  0
 24 28  1  0  0  0  0
 25 34  2  0  0  0  0
 26 31  1  0  0  0  0
 27 55  1  0  0  0  0
 27 56  1  0  0  0  0
 27 57  1  0  0  0  0
 28 58  1  0  0  0  0
 28 59  1  0  0  0  0
 29 35  1  0  0  0  0
 29 60  1  0  0  0  0
 30 37  1  0  0  0  0
 30 61  1  0  0  0  0
 32 36  1  0  0  0  0
 32 62  1  0  0  0  0
 33 63  1  0  0  0  0
 33 64  1  0  0  0  0
 33 65  1  0  0  0  0
 34 38  1  0  0  0  0
 34 66  1  0  0  0  0
 35 36  2  0  0  0  0
 35 68  1  0  0  0  0
 36 69  1  0  0  0  0
 37 38  2  0  0  0  0
 37 70  1  0  0  0  0
 38 71  1  0  0  0  0
M  CHG  1   4   1
M  END
> <PUBCHEM_COMPOUND_CID>
44353130

> <PUBCHEM_CONFORMER_RMSD>
0.8

> <PUBCHEM_CONFORMER_DIVERSEORDER>
1
2
3

> <PUBCHEM_MMFF94_PARTIAL_CHARGES>
42
1 -0.56
10 0.28
12 0.54
13 -0.05
14 -0.05
16 0.5
17 -0.01
18 -0.15
19 -0.01
2 -0.56
20 0.5
21 0.5
22 -0.15
24 -0.14
26 0.09
28 0.44
29 -0.15
3 -0.57
30 -0.15
31 0.54
32 -0.15
33 0.28
34 -0.15
35 -0.15
36 -0.15
37 -0.15
38 -0.15
4 -1.01
5 -0.04
6 -0.04
60 0.15
61 0.15
62 0.15
66 0.15
67 0.37
68 0.15
69 0.15
7 -0.73
70 0.15
71 0.15
8 0.5
9 0.54

> <PUBCHEM_EFFECTIVE_ROTOR_COUNT>
4.2

> <PUBCHEM_PHARMACOPHORE_FEATURES>
15
1 1 acceptor
1 2 acceptor
1 3 acceptor
1 4 cation
1 5 cation
1 6 cation
1 7 donor
5 5 13 17 18 23 rings
5 6 14 19 22 25 rings
5 7 24 26 28 31 rings
6 1 8 9 10 11 12 rings
6 13 14 17 19 24 26 rings
6 18 23 29 32 35 36 rings
6 22 25 30 34 37 38 rings
7 1 5 6 9 12 13 14 rings

> <PUBCHEM_HEAVY_ATOM_COUNT>
38

> <PUBCHEM_ATOM_DEF_STEREO_COUNT>
4

> <PUBCHEM_ATOM_UDEF_STEREO_COUNT>
0

> <PUBCHEM_BOND_DEF_STEREO_COUNT>
0

> <PUBCHEM_BOND_UDEF_STEREO_COUNT>
0

> <PUBCHEM_ISOTOPIC_ATOM_COUNT>
0

> <PUBCHEM_COMPONENT_COUNT>
1

> <PUBCHEM_CACTVS_TAUTO_COUNT>
2

> <PUBCHEM_CONFORMER_ID>
02A4C66A00000001

> <PUBCHEM_MMFF94_ENERGY>
225.1184

> <PUBCHEM_FEATURE_SELFOVERLAP>
77.071

> <PUBCHEM_SHAPE_FINGERPRINT>
10675989 125 18409166623564444836
1100329 8 17762909057881810722
11115154 58 17846489371319419753
11135609 187 18338517576577783824
11135926 11 18410569591442209623
11227688 84 18265922240113829274
11445158 3 17247559118890415977
11513181 2 18125729980987869014
12788726 201 18263354811553221633
13140716 1 16756925299448007608
1361 2 18194959879741293709
13642711 20 18338504365278993910
13911987 19 18190191250852189972
14068700 675 18059291088281711169
14537116 161 17618169081504952565
14790565 3 18265338502323146325
15320467 1 18410575101906316767
15324884 4 17319571680312062449
15420108 30 17769398040650027313
15484559 13 18268135629623530303
15840311 113 18189905206721521973
15927050 60 17978237054678742588
16728300 4 17536267623912728994
18681886 176 18267578203472110122
19319366 153 17767961297022300111
19591789 44 18338527442813676594
19930381 70 18409727387179013387
20028762 73 18343865520353931646
20764821 26 18264215712256968956
20775438 99 17762289753641945933
21133410 171 17469550267346683503
23559900 14 18196083567898786913
24771293 8 18057031635295877320
24771750 20 17899425469727850293
266924 87 18337392643481220126
283562 15 18413113857640050088
3380486 145 18263943067596193961
3882209 13 17830418753831632122
4353968 344 18341333276677304006
463206 1 18338232777343858911
469060 322 18411704296016347616
484989 97 17688030125339442491
57527585 103 17242763946411722304
70251023 43 18192713341373816539

> <PUBCHEM_SHAPE_MULTIPOLES>
744.49
9.3
6.96
1.27
2.16
1.96
-0.11
-4.33
3.3
-3.28
0.34
1.36
-0.06
-0.99

> <PUBCHEM_SHAPE_SELFOVERLAP>
1702.832

> <PUBCHEM_SHAPE_VOLUME>
383

> <PUBCHEM_COORDINATE_TYPE>
2
5
10

$$$$
