49830292
  -OEChem-10052120443D

 25 27  0     0  0  0  0  0  0999 V2000
    3.5180    3.0126    0.3111 Br  0  0  0  0  0  0  0  0  0  0  0  0
    1.1451   -2.4061   -0.2095 N   0  0  0  0  0  0  0  0  0  0  0  0
    3.1724   -1.1123   -0.0696 N   0  0  0  0  0  0  0  0  0  0  0  0
   -0.3859   -0.7970   -0.0768 C   0  0  0  0  0  0  0  0  0  0  0  0
    0.8987   -0.1957   -0.0082 C   0  0  0  0  0  0  0  0  0  0  0  0
    1.8309   -1.2257   -0.0936 C   0  0  0  0  0  0  0  0  0  0  0  0
   -1.6887   -0.1971   -0.0356 C   0  0  0  0  0  0  0  0  0  0  0  0
   -0.2030   -2.1574   -0.2002 C   0  0  0  0  0  0  0  0  0  0  0  0
    1.3917    1.1132    0.1171 C   0  0  0  0  0  0  0  0  0  0  0  0
   -2.5856   -0.5481    0.9733 C   0  0  0  0  0  0  0  0  0  0  0  0
   -2.0584    0.7362   -1.0039 C   0  0  0  0  0  0  0  0  0  0  0  0
    2.7741    1.2878    0.1472 C   0  0  0  0  0  0  0  0  0  0  0  0
    3.5907    0.1689    0.0525 C   0  0  0  0  0  0  0  0  0  0  0  0
   -3.8525    0.0344    1.0140 C   0  0  0  0  0  0  0  0  0  0  0  0
   -3.3252    1.3186   -0.9634 C   0  0  0  0  0  0  0  0  0  0  0  0
   -4.2222    0.9676    0.0455 C   0  0  0  0  0  0  0  0  0  0  0  0
   -0.9053   -2.9760   -0.2848 H   0  0  0  0  0  0  0  0  0  0  0  0
    1.5691   -3.3198   -0.2899 H   0  0  0  0  0  0  0  0  0  0  0  0
    0.7134    1.9580    0.1891 H   0  0  0  0  0  0  0  0  0  0  0  0
   -2.3157   -1.2699    1.7408 H   0  0  0  0  0  0  0  0  0  0  0  0
   -1.3747    1.0200   -1.8005 H   0  0  0  0  0  0  0  0  0  0  0  0
    4.6734    0.2714    0.0726 H   0  0  0  0  0  0  0  0  0  0  0  0
   -4.5507   -0.2379    1.8001 H   0  0  0  0  0  0  0  0  0  0  0  0
   -3.6136    2.0447   -1.7178 H   0  0  0  0  0  0  0  0  0  0  0  0
   -5.2086    1.4212    0.0771 H   0  0  0  0  0  0  0  0  0  0  0  0
  1 12  1  0  0  0  0
  2  6  1  0  0  0  0
  2  8  1  0  0  0  0
  2 18  1  0  0  0  0
  3  6  1  0  0  0  0
  3 13  2  0  0  0  0
  4  5  1  0  0  0  0
  4  7  1  0  0  0  0
  4  8  2  0  0  0  0
  5  6  2  0  0  0  0
  5  9  1  0  0  0  0
  7 10  2  0  0  0  0
  7 11  1  0  0  0  0
  8 17  1  0  0  0  0
  9 12  2  0  0  0  0
  9 19  1  0  0  0  0
 10 14  1  0  0  0  0
 10 20  1  0  0  0  0
 11 15  2  0  0  0  0
 11 21  1  0  0  0  0
 12 13  1  0  0  0  0
 13 22  1  0  0  0  0
 14 16  2  0  0  0  0
 14 23  1  0  0  0  0
 15 16  1  0  0  0  0
 15 24  1  0  0  0  0
 16 25  1  0  0  0  0
M  END
> <PUBCHEM_COMPOUND_CID>
49830292

> <PUBCHEM_CONFORMER_RMSD>
0.6

> <PUBCHEM_CONFORMER_DIVERSEORDER>
1
2

> <PUBCHEM_MMFF94_PARTIAL_CHARGES>
24
1 -0.11
10 -0.15
11 -0.15
12 0.11
13 0.16
14 -0.15
15 -0.15
16 -0.15
17 0.15
18 0.27
19 0.15
2 0.03
20 0.15
21 0.15
22 0.15
23 0.15
24 0.15
25 0.15
3 -0.57
4 -0.05
6 0.11
7 0.05
8 -0.3
9 -0.15

> <PUBCHEM_EFFECTIVE_ROTOR_COUNT>
1

> <PUBCHEM_PHARMACOPHORE_FEATURES>
7
1 1 hydrophobe
1 2 cation
1 2 donor
1 3 acceptor
5 2 4 5 6 8 rings
6 3 5 6 9 12 13 rings
6 7 10 11 14 15 16 rings

> <PUBCHEM_HEAVY_ATOM_COUNT>
16

> <PUBCHEM_ATOM_DEF_STEREO_COUNT>
0

> <PUBCHEM_ATOM_UDEF_STEREO_COUNT>
0

> <PUBCHEM_BOND_DEF_STEREO_COUNT>
0

> <PUBCHEM_BOND_UDEF_STEREO_COUNT>
0

> <PUBCHEM_ISOTOPIC_ATOM_COUNT>
0

> <PUBCHEM_COMPONENT_COUNT>
1

> <PUBCHEM_CACTVS_TAUTO_COUNT>
2

> <PUBCHEM_CONFORMER_ID>
02F8599400000001

> <PUBCHEM_MMFF94_ENERGY>
37.0324

> <PUBCHEM_FEATURE_SELFOVERLAP>
35.633

> <PUBCHEM_SHAPE_FINGERPRINT>
10608611 8 18261952947270698069
11132069 177 17968096456161362237
11471102 20 18340485569294534598
11543360 7 14836120013456009296
11615757 297 18202004296300999587
12236239 1 17203042994110930603
12390115 104 17908438183683863824
12654215 9 18336823070577406670
13134695 92 18122053209408425430
13140716 1 18337950190329093882
13583140 156 16879320472624800224
13922767 16 18411415081777360410
14026960 21 18261960746757253701
14123255 52 18267865158674440560
15219456 202 18261676982768462163
15309172 13 18412547613140244107
15342168 16 18339367486434392717
15653759 3 17676210147706609417
15775835 57 18272088326822396125
16945 1 18342738460199003870
1741750 31 18127128800079939512
1813 80 17055853442469807286
18175812 5 18186805764165829071
18186145 218 18201725063154838020
18219364 16 18410859884108202193
19049666 15 17825949213394392015
200 152 18201710740019109271
204376 136 18340206404920649304
20645477 56 18195530522277080496
20645477 70 18197491831887952471
21501502 16 18196927979986000438
21524375 3 18341327915513476582
21639500 275 18342728603127447973
22854114 111 18411419496708315492
22854114 59 18409451388496510881
23557571 272 17240483555623220173
23558518 356 18046061829186422170
23559900 14 17386289779128234179
25 1 18412825768001629550
27216 239 18117274968028746841
2748010 2 18339086007267813590
350125 39 18124597749639224882
474 4 18343018899824715856
49207404 50 18261405497679999545
5104073 3 18333735710772832657
633830 44 17988939859044185037
7364860 26 18268430135646684334
77492 1 17203040786408206063
7808743 9 17831584541490298652
81228 2 17618210045874105674
8272917 22 17985834735666018879
90316 7 16226038977571726069

> <PUBCHEM_SHAPE_MULTIPOLES>
325.25
7.53
2.51
0.88
1.77
0.21
-0.02
4.68
-0.85
-2.34
0.11
0.69
0.16
0.71

> <PUBCHEM_SHAPE_SELFOVERLAP>
714.53

> <PUBCHEM_SHAPE_VOLUME>
181.8

> <PUBCHEM_COORDINATE_TYPE>
2
5
10

$$$$
