11546373
  -OEChem-10052115193D

 48 51  0     0  0  0  0  0  0999 V2000
   -8.3982   -0.8965    1.4457 F   0  0  0  0  0  0  0  0  0  0  0  0
   -9.3194    0.4145   -0.0237 F   0  0  0  0  0  0  0  0  0  0  0  0
   -8.1676    1.2640    1.6210 F   0  0  0  0  0  0  0  0  0  0  0  0
   -1.8469   -0.1665   -1.4519 O   0  0  0  0  0  0  0  0  0  0  0  0
    7.2573    1.2990   -0.0658 N   0  0  0  0  0  0  0  0  0  0  0  0
    6.3637    2.2836    0.1395 N   0  0  0  0  0  0  0  0  0  0  0  0
    7.3478   -1.1051   -0.3170 N   0  0  0  0  0  0  0  0  0  0  0  0
    3.9907    2.2278    0.4145 N   0  0  0  0  0  0  0  0  0  0  0  0
   -1.0569   -0.4359    0.7374 N   0  0  0  0  0  0  0  0  0  0  0  0
   -3.3228   -0.1903    0.3620 N   0  0  0  0  0  0  0  0  0  0  0  0
    5.3367    0.2412    0.0562 C   0  0  0  0  0  0  0  0  0  0  0  0
    4.5130   -0.8913    0.0397 C   0  0  0  0  0  0  0  0  0  0  0  0
    6.6987    0.0563   -0.1234 C   0  0  0  0  0  0  0  0  0  0  0  0
    3.0875   -0.7750    0.2183 C   0  0  0  0  0  0  0  0  0  0  0  0
    5.1971    1.6346    0.2124 C   0  0  0  0  0  0  0  0  0  0  0  0
    5.1303   -2.1267   -0.1572 C   0  0  0  0  0  0  0  0  0  0  0  0
    2.5318   -0.8388    1.4991 C   0  0  0  0  0  0  0  0  0  0  0  0
    2.2525   -0.5979   -0.8884 C   0  0  0  0  0  0  0  0  0  0  0  0
    0.3229   -0.5496    0.5645 C   0  0  0  0  0  0  0  0  0  0  0  0
    6.5103   -2.1704   -0.3244 C   0  0  0  0  0  0  0  0  0  0  0  0
    1.1524   -0.7262    1.6719 C   0  0  0  0  0  0  0  0  0  0  0  0
    0.8729   -0.4854   -0.7157 C   0  0  0  0  0  0  0  0  0  0  0  0
    8.6574    1.6261   -0.1974 C   0  0  0  0  0  0  0  0  0  0  0  0
   -4.5815   -0.0168   -0.2604 C   0  0  0  0  0  0  0  0  0  0  0  0
   -2.0591   -0.2542   -0.2466 C   0  0  0  0  0  0  0  0  0  0  0  0
   -6.9653    0.1953   -0.0932 C   0  0  0  0  0  0  0  0  0  0  0  0
   -5.7247    0.0229    0.5207 C   0  0  0  0  0  0  0  0  0  0  0  0
   -4.6441    0.1111   -1.6383 C   0  0  0  0  0  0  0  0  0  0  0  0
   -7.0453    0.3255   -1.4798 C   0  0  0  0  0  0  0  0  0  0  0  0
   -5.8847    0.2835   -2.2521 C   0  0  0  0  0  0  0  0  0  0  0  0
   -8.2067    0.2411    0.7325 C   0  0  0  0  0  0  0  0  0  0  0  0
    4.5546   -3.0474   -0.1820 H   0  0  0  0  0  0  0  0  0  0  0  0
    3.1637   -0.9753    2.3738 H   0  0  0  0  0  0  0  0  0  0  0  0
    2.6657   -0.5450   -1.8933 H   0  0  0  0  0  0  0  0  0  0  0  0
    7.0043   -3.1261   -0.4788 H   0  0  0  0  0  0  0  0  0  0  0  0
    0.7374   -0.7775    2.6753 H   0  0  0  0  0  0  0  0  0  0  0  0
    0.3000   -0.3501   -1.6218 H   0  0  0  0  0  0  0  0  0  0  0  0
    8.7723    2.3035   -1.0474 H   0  0  0  0  0  0  0  0  0  0  0  0
    8.9836    2.1116    0.7259 H   0  0  0  0  0  0  0  0  0  0  0  0
    9.2411    0.7185   -0.3655 H   0  0  0  0  0  0  0  0  0  0  0  0
    3.9122    3.2343    0.5247 H   0  0  0  0  0  0  0  0  0  0  0  0
    3.1095    1.7313    0.4691 H   0  0  0  0  0  0  0  0  0  0  0  0
   -1.3826   -0.4916    1.6993 H   0  0  0  0  0  0  0  0  0  0  0  0
   -5.6634   -0.0783    1.6014 H   0  0  0  0  0  0  0  0  0  0  0  0
   -3.3452   -0.2779    1.3749 H   0  0  0  0  0  0  0  0  0  0  0  0
   -3.7962    0.0894   -2.3060 H   0  0  0  0  0  0  0  0  0  0  0  0
   -8.0012    0.4607   -1.9781 H   0  0  0  0  0  0  0  0  0  0  0  0
   -5.9482    0.3851   -3.3317 H   0  0  0  0  0  0  0  0  0  0  0  0
  1 31  1  0  0  0  0
  2 31  1  0  0  0  0
  3 31  1  0  0  0  0
  4 25  2  0  0  0  0
  5  6  1  0  0  0  0
  5 13  1  0  0  0  0
  5 23  1  0  0  0  0
  6 15  2  0  0  0  0
  7 13  2  0  0  0  0
  7 20  1  0  0  0  0
  8 15  1  0  0  0  0
  8 41  1  0  0  0  0
  8 42  1  0  0  0  0
  9 19  1  0  0  0  0
  9 25  1  0  0  0  0
  9 43  1  0  0  0  0
 10 24  1  0  0  0  0
 10 25  1  0  0  0  0
 10 45  1  0  0  0  0
 11 12  2  0  0  0  0
 11 13  1  0  0  0  0
 11 15  1  0  0  0  0
 12 14  1  0  0  0  0
 12 16  1  0  0  0  0
 14 17  2  0  0  0  0
 14 18  1  0  0  0  0
 16 20  2  0  0  0  0
 16 32  1  0  0  0  0
 17 21  1  0  0  0  0
 17 33  1  0  0  0  0
 18 22  2  0  0  0  0
 18 34  1  0  0  0  0
 19 21  2  0  0  0  0
 19 22  1  0  0  0  0
 20 35  1  0  0  0  0
 21 36  1  0  0  0  0
 22 37  1  0  0  0  0
 23 38  1  0  0  0  0
 23 39  1  0  0  0  0
 23 40  1  0  0  0  0
 24 27  1  0  0  0  0
 24 28  2  0  0  0  0
 26 27  2  0  0  0  0
 26 29  1  0  0  0  0
 26 31  1  0  0  0  0
 27 44  1  0  0  0  0
 28 30  1  0  0  0  0
 28 46  1  0  0  0  0
 29 30  2  0  0  0  0
 29 47  1  0  0  0  0
 30 48  1  0  0  0  0
M  END
> <PUBCHEM_COMPOUND_CID>
11546373

> <PUBCHEM_CONFORMER_RMSD>
0.8

> <PUBCHEM_CONFORMER_DIVERSEORDER>
2
13
18
12
19
16
3
14
9
17
15
4
20
10
5
11
8
6
1
7

> <PUBCHEM_MMFF94_PARTIAL_CHARGES>
42
1 -0.34
10 -0.55
13 0.11
15 0.37
16 -0.15
17 -0.15
18 -0.15
19 0.12
2 -0.34
20 0.16
21 -0.15
22 -0.15
23 0.26
24 0.12
25 0.69
26 -0.14
27 -0.15
28 -0.15
29 -0.15
3 -0.34
30 -0.15
31 1.16
32 0.15
33 0.15
34 0.15
35 0.15
36 0.15
37 0.15
4 -0.57
41 0.4
42 0.4
43 0.37
44 0.15
45 0.37
46 0.15
47 0.15
48 0.15
5 0.31
6 -0.71
7 -0.57
8 -0.88
9 -0.55

> <PUBCHEM_EFFECTIVE_ROTOR_COUNT>
6

> <PUBCHEM_PHARMACOPHORE_FEATURES>
10
1 10 donor
1 4 acceptor
1 8 donor
1 9 donor
3 5 7 13 cation
3 6 8 15 cation
5 5 6 11 13 15 rings
6 14 17 18 19 21 22 rings
6 24 26 27 28 29 30 rings
6 7 11 12 13 16 20 rings

> <PUBCHEM_HEAVY_ATOM_COUNT>
31

> <PUBCHEM_ATOM_DEF_STEREO_COUNT>
0

> <PUBCHEM_ATOM_UDEF_STEREO_COUNT>
0

> <PUBCHEM_BOND_DEF_STEREO_COUNT>
0

> <PUBCHEM_BOND_UDEF_STEREO_COUNT>
0

> <PUBCHEM_ISOTOPIC_ATOM_COUNT>
0

> <PUBCHEM_COMPONENT_COUNT>
1

> <PUBCHEM_CACTVS_TAUTO_COUNT>
20

> <PUBCHEM_CONFORMER_ID>
00B02F0500000002

> <PUBCHEM_MMFF94_ENERGY>
87.0058

> <PUBCHEM_FEATURE_SELFOVERLAP>
50.91

> <PUBCHEM_SHAPE_FINGERPRINT>
10 15 16950561099136421969
10050765 1 15552730054148826463
10299344 5 17704069590737991783
10411042 1 18051412865571397782
106641 1 14851603306676853316
11136131 41 15213285388880221923
11181472 205 17560531594357910761
11315181 36 18413107265576757387
11646440 116 17676209065238168925
11719270 70 14923941232639218218
12082328 90 18272932722521382127
12089408 11 17346596369993750823
12730499 353 17968091993785644754
12741549 16 11959729336287203842
13560911 43 14273460266959269127
13617811 41 15267348422741443448
14251764 18 17275101717888976103
14294032 229 15357691981296717471
14461889 52 16008751294914579593
14933364 13 18408602560892526165
150020 25 18040432175143506685
15183329 4 15339122346726329331
15276724 80 18273210880855399700
15419008 47 17749102288408976533
15510794 2 17967255295364541402
1577012 14 17704067408525301583
15840311 113 18409733971791172604
18608769 82 17167861980596879295
20157964 124 18411418406715284110
20554085 129 16588020213058694752
20771845 140 14634857679316637888
20771845 171 17275116016114537422
21033648 29 17896313791923479120
21130935 74 16226598581771588363
21521721 280 18410011043893836490
221357 26 18409725141560198004
22149856 69 16226609559702884109
22224240 67 16588023519603406531
22956985 138 14347729988577810096
23522609 53 17274279321276628009
23576562 1 16700880781792044756
24771293 8 17241045539430344782
249057 3 18413106169927976718
255183 451 17558280830771457622
2747138 104 17458348524686824789
3004659 81 15841546405584027186
3092352 35 17988923375250107127
335352 9 15841546371857226253
3383291 50 16515692156588070937
34797466 226 18410011018593427142
397830 11 17969231194736366995
4073 2 18260551168756444674
4093350 32 18412544297657723926
4325135 7 17561366179491684501
5109719 28 17095814290479749404
5283156 175 17418376870343609414
5758199 1 17458344130824290411
58902169 19 17774716554265348316
59682541 35 16370727053875692085
67123 10 18412545423308303419
9663363 56 16443065007728180651
9689198 14 18260828181382745695
9953998 17 17894635860270793699

> <PUBCHEM_SHAPE_MULTIPOLES>
580.39
30.61
1.66
1.4
32.36
0.31
0.17
7.6
-0.97
-4.79
-0.13
2.77
-0.03
0.93

> <PUBCHEM_SHAPE_SELFOVERLAP>
1290.325

> <PUBCHEM_SHAPE_VOLUME>
311.5

> <PUBCHEM_COORDINATE_TYPE>
2
5
10

$$$$
