16086114
  -OEChem-10062121563D

 67 71  0     0  0  0  0  0  0999 V2000
   -7.1238    5.2048   -0.1854 F   0  0  0  0  0  0  0  0  0  0  0  0
   -5.0140    4.8513    0.1722 F   0  0  0  0  0  0  0  0  0  0  0  0
   -5.8908    4.3293   -1.7481 F   0  0  0  0  0  0  0  0  0  0  0  0
   10.8872    1.5738    1.6644 O   0  0  0  0  0  0  0  0  0  0  0  0
   -5.9427   -2.2576    1.2341 O   0  0  0  0  0  0  0  0  0  0  0  0
    8.3350    1.6168    0.4051 N   0  0  0  0  0  0  0  0  0  0  0  0
    5.3167    0.5737   -1.4888 N   0  0  0  0  0  0  0  0  0  0  0  0
    3.6527   -0.4504   -0.2301 N   0  0  0  0  0  0  0  0  0  0  0  0
    3.3872   -0.0831   -2.5969 N   0  0  0  0  0  0  0  0  0  0  0  0
   -4.8541   -0.4223    0.2585 N   0  0  0  0  0  0  0  0  0  0  0  0
    9.3373    2.6597    0.1461 C   0  0  0  0  0  0  0  0  0  0  0  0
    9.0011    0.3530    0.7495 C   0  0  0  0  0  0  0  0  0  0  0  0
    7.4570    1.4426   -0.7502 C   0  0  0  0  0  0  0  0  0  0  0  0
   10.2494    2.8147    1.3598 C   0  0  0  0  0  0  0  0  0  0  0  0
    9.9200    0.5625    1.9495 C   0  0  0  0  0  0  0  0  0  0  0  0
    6.1750    0.7303   -0.3388 C   0  0  0  0  0  0  0  0  0  0  0  0
    4.0620   -0.0126   -1.4382 C   0  0  0  0  0  0  0  0  0  0  0  0
   -0.1160   -2.2207   -0.0321 C   0  0  0  0  0  0  0  0  0  0  0  0
   -1.4232   -2.8347    0.0460 C   0  0  0  0  0  0  0  0  0  0  0  0
    1.6348   -1.1512   -1.3200 C   0  0  0  0  0  0  0  0  0  0  0  0
    2.4363   -1.0202   -0.1742 C   0  0  0  0  0  0  0  0  0  0  0  0
    0.3644   -1.7487   -1.2496 C   0  0  0  0  0  0  0  0  0  0  0  0
   -1.5850   -4.2083   -0.1348 C   0  0  0  0  0  0  0  0  0  0  0  0
    0.6682   -2.0966    1.1093 C   0  0  0  0  0  0  0  0  0  0  0  0
    1.9307   -1.5012    1.0311 C   0  0  0  0  0  0  0  0  0  0  0  0
   -2.5325   -2.0302    0.3068 C   0  0  0  0  0  0  0  0  0  0  0  0
    2.1737   -0.6590   -2.5054 C   0  0  0  0  0  0  0  0  0  0  0  0
   -3.8034   -2.5994    0.3870 C   0  0  0  0  0  0  0  0  0  0  0  0
   -2.8559   -4.7775   -0.0548 C   0  0  0  0  0  0  0  0  0  0  0  0
   -3.9651   -3.9731    0.2061 C   0  0  0  0  0  0  0  0  0  0  0  0
   -0.4199   -5.1023   -0.4160 C   0  0  0  0  0  0  0  0  0  0  0  0
   -4.9605   -1.7615    0.6590 C   0  0  0  0  0  0  0  0  0  0  0  0
   -5.7991    0.6218    0.4116 C   0  0  0  0  0  0  0  0  0  0  0  0
   -5.5064    1.9025   -0.0567 C   0  0  0  0  0  0  0  0  0  0  0  0
   -6.4370    2.9304    0.0954 C   0  0  0  0  0  0  0  0  0  0  0  0
   -7.0225    0.3687    1.0319 C   0  0  0  0  0  0  0  0  0  0  0  0
   -7.6604    2.6774    0.7159 C   0  0  0  0  0  0  0  0  0  0  0  0
   -7.9531    1.3965    1.1842 C   0  0  0  0  0  0  0  0  0  0  0  0
   -6.1235    4.3004   -0.4034 C   0  0  0  0  0  0  0  0  0  0  0  0
    9.9395    2.3970   -0.7334 H   0  0  0  0  0  0  0  0  0  0  0  0
    8.8479    3.6204   -0.0510 H   0  0  0  0  0  0  0  0  0  0  0  0
    9.5939   -0.0097   -0.1005 H   0  0  0  0  0  0  0  0  0  0  0  0
    8.2801   -0.4255    1.0156 H   0  0  0  0  0  0  0  0  0  0  0  0
    7.1723    2.4246   -1.1528 H   0  0  0  0  0  0  0  0  0  0  0  0
    7.9615    0.9112   -1.5683 H   0  0  0  0  0  0  0  0  0  0  0  0
   11.0336    3.5478    1.1455 H   0  0  0  0  0  0  0  0  0  0  0  0
    9.6966    3.1677    2.2390 H   0  0  0  0  0  0  0  0  0  0  0  0
    9.3557    0.8384    2.8488 H   0  0  0  0  0  0  0  0  0  0  0  0
   10.4623   -0.3626    2.1699 H   0  0  0  0  0  0  0  0  0  0  0  0
    6.3866   -0.2611    0.0739 H   0  0  0  0  0  0  0  0  0  0  0  0
    5.6602    1.3148    0.4341 H   0  0  0  0  0  0  0  0  0  0  0  0
    5.6295    0.9012   -2.3957 H   0  0  0  0  0  0  0  0  0  0  0  0
   -0.2404   -1.8401   -2.1503 H   0  0  0  0  0  0  0  0  0  0  0  0
    0.3155   -2.4575    2.0727 H   0  0  0  0  0  0  0  0  0  0  0  0
    2.5249   -1.4162    1.9389 H   0  0  0  0  0  0  0  0  0  0  0  0
   -2.3705   -0.9695    0.4827 H   0  0  0  0  0  0  0  0  0  0  0  0
    1.6282   -0.7158   -3.4428 H   0  0  0  0  0  0  0  0  0  0  0  0
   -3.0009   -5.8456   -0.1943 H   0  0  0  0  0  0  0  0  0  0  0  0
   -4.9472   -4.4358    0.2592 H   0  0  0  0  0  0  0  0  0  0  0  0
   -0.7294   -6.1472   -0.5306 H   0  0  0  0  0  0  0  0  0  0  0  0
    0.3009   -5.0715    0.4076 H   0  0  0  0  0  0  0  0  0  0  0  0
    0.0761   -4.8124   -1.3480 H   0  0  0  0  0  0  0  0  0  0  0  0
   -4.0190   -0.1355   -0.2445 H   0  0  0  0  0  0  0  0  0  0  0  0
   -4.5532    2.1043   -0.5403 H   0  0  0  0  0  0  0  0  0  0  0  0
   -7.3218   -0.5944    1.4199 H   0  0  0  0  0  0  0  0  0  0  0  0
   -8.3979    3.4648    0.8440 H   0  0  0  0  0  0  0  0  0  0  0  0
   -8.9061    1.2006    1.6672 H   0  0  0  0  0  0  0  0  0  0  0  0
  1 39  1  0  0  0  0
  2 39  1  0  0  0  0
  3 39  1  0  0  0  0
  4 14  1  0  0  0  0
  4 15  1  0  0  0  0
  5 32  2  0  0  0  0
  6 11  1  0  0  0  0
  6 12  1  0  0  0  0
  6 13  1  0  0  0  0
  7 16  1  0  0  0  0
  7 17  1  0  0  0  0
  7 52  1  0  0  0  0
  8 17  1  0  0  0  0
  8 21  2  0  0  0  0
  9 17  2  0  0  0  0
  9 27  1  0  0  0  0
 10 32  1  0  0  0  0
 10 33  1  0  0  0  0
 10 63  1  0  0  0  0
 11 14  1  0  0  0  0
 11 40  1  0  0  0  0
 11 41  1  0  0  0  0
 12 15  1  0  0  0  0
 12 42  1  0  0  0  0
 12 43  1  0  0  0  0
 13 16  1  0  0  0  0
 13 44  1  0  0  0  0
 13 45  1  0  0  0  0
 14 46  1  0  0  0  0
 14 47  1  0  0  0  0
 15 48  1  0  0  0  0
 15 49  1  0  0  0  0
 16 50  1  0  0  0  0
 16 51  1  0  0  0  0
 18 19  1  0  0  0  0
 18 22  2  0  0  0  0
 18 24  1  0  0  0  0
 19 23  2  0  0  0  0
 19 26  1  0  0  0  0
 20 21  1  0  0  0  0
 20 22  1  0  0  0  0
 20 27  2  0  0  0  0
 21 25  1  0  0  0  0
 22 53  1  0  0  0  0
 23 29  1  0  0  0  0
 23 31  1  0  0  0  0
 24 25  2  0  0  0  0
 24 54  1  0  0  0  0
 25 55  1  0  0  0  0
 26 28  2  0  0  0  0
 26 56  1  0  0  0  0
 27 57  1  0  0  0  0
 28 30  1  0  0  0  0
 28 32  1  0  0  0  0
 29 30  2  0  0  0  0
 29 58  1  0  0  0  0
 30 59  1  0  0  0  0
 31 60  1  0  0  0  0
 31 61  1  0  0  0  0
 31 62  1  0  0  0  0
 33 34  1  0  0  0  0
 33 36  2  0  0  0  0
 34 35  2  0  0  0  0
 34 64  1  0  0  0  0
 35 37  1  0  0  0  0
 35 39  1  0  0  0  0
 36 38  1  0  0  0  0
 36 65  1  0  0  0  0
 37 38  2  0  0  0  0
 37 66  1  0  0  0  0
 38 67  1  0  0  0  0
M  END
> <PUBCHEM_COMPOUND_CID>
16086114

> <PUBCHEM_CONFORMER_RMSD>
1.2

> <PUBCHEM_CONFORMER_DIVERSEORDER>
1
136
12
97
20
91
92
69
132
124
103
130
102
58
118
121
109
31
93
137
106
80
122
101
82
52
112
75
28
115
21
127
135
61
128
67
45
123
89
94
23
4
27
113
54
66
18
129
87
29
133
120
56
64
77
86
108
104
85
51
16
57
72
111
39
15
48
107
35
100
36
26
5
68
73
42
60
63
65
134
95
24
76
71
110
46
25
33
119
99
3
32
131
17
37
41
74
11
19
84
116
88
55
81
2
53
50
44
98
8
40
59
90
96
125
49
30
13
34
79
6
117
43
70
38
114
83
105
14
126
22
7
78
62
10
47
9

> <PUBCHEM_MMFF94_PARTIAL_CHARGES>
49
1 -0.34
10 -0.55
11 0.27
12 0.27
13 0.27
14 0.28
15 0.28
16 0.37
17 0.72
2 -0.34
21 0.31
22 -0.15
23 -0.14
24 -0.15
25 -0.15
26 -0.15
27 0.16
28 0.09
29 -0.15
3 -0.34
30 -0.15
31 0.14
32 0.54
33 0.12
34 -0.15
35 -0.14
36 -0.15
37 -0.15
38 -0.15
39 1.16
4 -0.56
5 -0.57
52 0.4
53 0.15
54 0.15
55 0.15
56 0.15
57 0.15
58 0.15
59 0.15
6 -0.81
63 0.37
64 0.15
65 0.15
66 0.15
67 0.15
7 -0.87
8 -0.62
9 -0.62

> <PUBCHEM_EFFECTIVE_ROTOR_COUNT>
10.2

> <PUBCHEM_PHARMACOPHORE_FEATURES>
12
1 10 donor
1 4 acceptor
1 5 acceptor
1 6 cation
1 7 donor
1 8 acceptor
4 7 8 9 17 cation
6 18 20 21 22 24 25 rings
6 19 23 26 28 29 30 rings
6 33 34 35 36 37 38 rings
6 4 6 11 12 14 15 rings
6 8 9 17 20 21 27 rings

> <PUBCHEM_HEAVY_ATOM_COUNT>
39

> <PUBCHEM_ATOM_DEF_STEREO_COUNT>
0

> <PUBCHEM_ATOM_UDEF_STEREO_COUNT>
0

> <PUBCHEM_BOND_DEF_STEREO_COUNT>
0

> <PUBCHEM_BOND_UDEF_STEREO_COUNT>
0

> <PUBCHEM_ISOTOPIC_ATOM_COUNT>
0

> <PUBCHEM_COMPONENT_COUNT>
1

> <PUBCHEM_CACTVS_TAUTO_COUNT>
6

> <PUBCHEM_CONFORMER_ID>
00F5746200000001

> <PUBCHEM_MMFF94_ENERGY>
115.4697

> <PUBCHEM_FEATURE_SELFOVERLAP>
60.929

> <PUBCHEM_SHAPE_FINGERPRINT>
10280341 67 18409446951753758837
10533779 1 18336543820885216829
10917259 128 18409171039049535172
11103572 95 18412265030932889826
11181472 205 18187652449277498164
11578821 258 18200314459126681632
13726171 33 18265904566919090457
14040221 275 17313656037034577764
14415361 349 11383844774761731556
15145343 4 18130504227874181224
15419008 145 18040997366658828717
15419008 91 17988927825547738558
15439362 3 18338806597923569951
15455200 26 17753318778807070365
19304144 158 18271534168783847631
19304671 126 17700707160006224117
21133410 221 17844799476816928177
21772523 7 16343404195064751400
21772524 286 18410295822223351572
21792965 68 18410847780811059300
23516275 100 18118682120339697661
23522609 53 17387432327187861622
2835820 25 18411978070886874600
306946 40 17489586788635832168
3525247 154 17989207001810748569
3918712 181 18266181626706687341
393628 179 18411698769142783413
44575985 347 18411981325713150825
44802255 64 17418097662867617271
5028188 123 9727367827080902978
5219985 13 18337963277701535015
54039377 194 9799693709975853691
6201320 215 18410855490335559499
6289498 60 18409176527933817792
636775 72 18412546543572289025
636775 8 8142095260408339418
7970288 3 9838544386887540495

> <PUBCHEM_SHAPE_MULTIPOLES>
744.14
33.23
7.01
1.62
76.05
1.59
-0.63
47.58
15.89
-17.42
-0.45
2.69
0.28
2.95

> <PUBCHEM_SHAPE_SELFOVERLAP>
1628.204

> <PUBCHEM_SHAPE_VOLUME>
404.9

> <PUBCHEM_COORDINATE_TYPE>
2
5
10

$$$$
