11314310
  -OEChem-10062121563D

 46 49  0     0  0  0  0  0  0999 V2000
    2.5312    0.0624    1.2371 O   0  0  0  0  0  0  0  0  0  0  0  0
   -6.5671   -1.5314    0.1997 N   0  0  0  0  0  0  0  0  0  0  0  0
   -5.6436   -2.4679   -0.0741 N   0  0  0  0  0  0  0  0  0  0  0  0
    1.6404    0.3882   -0.9053 N   0  0  0  0  0  0  0  0  0  0  0  0
   -3.2930   -2.3024   -0.4418 N   0  0  0  0  0  0  0  0  0  0  0  0
    3.9233    0.1571   -0.6396 N   0  0  0  0  0  0  0  0  0  0  0  0
   -4.7055   -0.3837    0.0403 C   0  0  0  0  0  0  0  0  0  0  0  0
   -3.8963    0.7646    0.0552 C   0  0  0  0  0  0  0  0  0  0  0  0
   -6.0690   -0.2592    0.2818 C   0  0  0  0  0  0  0  0  0  0  0  0
   -2.4776    0.6672   -0.1911 C   0  0  0  0  0  0  0  0  0  0  0  0
   -4.5123   -1.7658   -0.1705 C   0  0  0  0  0  0  0  0  0  0  0  0
   -4.4968    2.0028    0.3147 C   0  0  0  0  0  0  0  0  0  0  0  0
   -6.6876    0.9655    0.5426 C   0  0  0  0  0  0  0  0  0  0  0  0
   -1.5938    0.4666    0.8717 C   0  0  0  0  0  0  0  0  0  0  0  0
   -1.9827    0.7744   -1.4928 C   0  0  0  0  0  0  0  0  0  0  0  0
   -5.8688    2.0995    0.5540 C   0  0  0  0  0  0  0  0  0  0  0  0
    0.2688    0.4810   -0.6673 C   0  0  0  0  0  0  0  0  0  0  0  0
   -0.2224    0.3737    0.6339 C   0  0  0  0  0  0  0  0  0  0  0  0
   -0.6114    0.6813   -1.7306 C   0  0  0  0  0  0  0  0  0  0  0  0
    5.2105   -0.0205   -0.0798 C   0  0  0  0  0  0  0  0  0  0  0  0
    2.6877    0.1885    0.0269 C   0  0  0  0  0  0  0  0  0  0  0  0
    7.5866   -0.1964   -0.3598 C   0  0  0  0  0  0  0  0  0  0  0  0
    6.3177   -0.0209   -0.9120 C   0  0  0  0  0  0  0  0  0  0  0  0
    5.3364   -0.1907    1.2891 C   0  0  0  0  0  0  0  0  0  0  0  0
    7.7302   -0.3689    1.0169 C   0  0  0  0  0  0  0  0  0  0  0  0
    6.6052   -0.3661    1.8414 C   0  0  0  0  0  0  0  0  0  0  0  0
    8.7899   -0.1990   -1.2408 C   0  0  0  0  0  0  0  0  0  0  0  0
   -3.8978    2.9114    0.3334 H   0  0  0  0  0  0  0  0  0  0  0  0
   -7.7533    1.0385    0.7283 H   0  0  0  0  0  0  0  0  0  0  0  0
   -1.9609    0.3804    1.8919 H   0  0  0  0  0  0  0  0  0  0  0  0
   -2.6548    0.9302   -2.3336 H   0  0  0  0  0  0  0  0  0  0  0  0
   -6.3099    3.0730    0.7530 H   0  0  0  0  0  0  0  0  0  0  0  0
   -7.5275   -1.8283    0.3202 H   0  0  0  0  0  0  0  0  0  0  0  0
    0.3921    0.2182    1.5089 H   0  0  0  0  0  0  0  0  0  0  0  0
   -0.2426    0.7665   -2.7497 H   0  0  0  0  0  0  0  0  0  0  0  0
    1.9217    0.4760   -1.8787 H   0  0  0  0  0  0  0  0  0  0  0  0
   -2.4320   -1.7756   -0.5171 H   0  0  0  0  0  0  0  0  0  0  0  0
   -3.1830   -3.3012   -0.5897 H   0  0  0  0  0  0  0  0  0  0  0  0
    3.8990    0.2763   -1.6491 H   0  0  0  0  0  0  0  0  0  0  0  0
    6.2043    0.1156   -1.9846 H   0  0  0  0  0  0  0  0  0  0  0  0
    4.5191   -0.2010    1.9944 H   0  0  0  0  0  0  0  0  0  0  0  0
    8.7135   -0.5046    1.4595 H   0  0  0  0  0  0  0  0  0  0  0  0
    6.7185   -0.5002    2.9133 H   0  0  0  0  0  0  0  0  0  0  0  0
    9.5877   -0.8203   -0.8198 H   0  0  0  0  0  0  0  0  0  0  0  0
    9.1679    0.8208   -1.3633 H   0  0  0  0  0  0  0  0  0  0  0  0
    8.5541   -0.6077   -2.2293 H   0  0  0  0  0  0  0  0  0  0  0  0
  1 21  2  0  0  0  0
  2  3  1  0  0  0  0
  2  9  1  0  0  0  0
  2 33  1  0  0  0  0
  3 11  2  0  0  0  0
  4 17  1  0  0  0  0
  4 21  1  0  0  0  0
  4 36  1  0  0  0  0
  5 11  1  0  0  0  0
  5 37  1  0  0  0  0
  5 38  1  0  0  0  0
  6 20  1  0  0  0  0
  6 21  1  0  0  0  0
  6 39  1  0  0  0  0
  7  8  2  0  0  0  0
  7  9  1  0  0  0  0
  7 11  1  0  0  0  0
  8 10  1  0  0  0  0
  8 12  1  0  0  0  0
  9 13  2  0  0  0  0
 10 14  2  0  0  0  0
 10 15  1  0  0  0  0
 12 16  2  0  0  0  0
 12 28  1  0  0  0  0
 13 16  1  0  0  0  0
 13 29  1  0  0  0  0
 14 18  1  0  0  0  0
 14 30  1  0  0  0  0
 15 19  2  0  0  0  0
 15 31  1  0  0  0  0
 16 32  1  0  0  0  0
 17 18  2  0  0  0  0
 17 19  1  0  0  0  0
 18 34  1  0  0  0  0
 19 35  1  0  0  0  0
 20 23  1  0  0  0  0
 20 24  2  0  0  0  0
 22 23  2  0  0  0  0
 22 25  1  0  0  0  0
 22 27  1  0  0  0  0
 23 40  1  0  0  0  0
 24 26  1  0  0  0  0
 24 41  1  0  0  0  0
 25 26  2  0  0  0  0
 25 42  1  0  0  0  0
 26 43  1  0  0  0  0
 27 44  1  0  0  0  0
 27 45  1  0  0  0  0
 27 46  1  0  0  0  0
M  END
> <PUBCHEM_COMPOUND_CID>
11314310

> <PUBCHEM_CONFORMER_RMSD>
0.8

> <PUBCHEM_CONFORMER_DIVERSEORDER>
1
12
14
10
18
7
13
16
11
9
4
19
17
5
15
3
2
6
8

> <PUBCHEM_MMFF94_PARTIAL_CHARGES>
40
1 -0.57
11 0.37
12 -0.15
13 -0.15
14 -0.15
15 -0.15
16 -0.15
17 0.12
18 -0.15
19 -0.15
2 0.3
20 0.12
21 0.69
22 -0.14
23 -0.15
24 -0.15
25 -0.15
26 -0.15
27 0.14
28 0.15
29 0.15
3 -0.71
30 0.15
31 0.15
32 0.15
33 0.27
34 0.15
35 0.15
36 0.37
37 0.4
38 0.4
39 0.37
4 -0.55
40 0.15
41 0.15
42 0.15
43 0.15
5 -0.88
6 -0.55
9 -0.15

> <PUBCHEM_EFFECTIVE_ROTOR_COUNT>
5

> <PUBCHEM_PHARMACOPHORE_FEATURES>
10
1 1 acceptor
1 2 donor
1 4 donor
1 5 donor
1 6 donor
3 3 5 11 cation
5 2 3 7 9 11 rings
6 10 14 15 17 18 19 rings
6 20 22 23 24 25 26 rings
6 7 8 9 12 13 16 rings

> <PUBCHEM_HEAVY_ATOM_COUNT>
27

> <PUBCHEM_ATOM_DEF_STEREO_COUNT>
0

> <PUBCHEM_ATOM_UDEF_STEREO_COUNT>
0

> <PUBCHEM_BOND_DEF_STEREO_COUNT>
0

> <PUBCHEM_BOND_UDEF_STEREO_COUNT>
0

> <PUBCHEM_ISOTOPIC_ATOM_COUNT>
0

> <PUBCHEM_COMPONENT_COUNT>
1

> <PUBCHEM_CACTVS_TAUTO_COUNT>
21

> <PUBCHEM_CONFORMER_ID>
00ACA48600000001

> <PUBCHEM_MMFF94_ENERGY>
84.0099

> <PUBCHEM_FEATURE_SELFOVERLAP>
50.887

> <PUBCHEM_SHAPE_FINGERPRINT>
10 15 17561358500712424216
10076449 9 12324247161872476165
10299344 5 18113620080014395834
10319926 262 18272643575941725521
11315181 36 18334015004133106765
11524674 6 17703788141215172079
12091667 2 16877663444335358141
12166972 35 18113337531360035508
12236239 1 18040156236385090637
12516196 113 18040151817069750796
13288520 33 18334012809399297029
13533116 47 17095798838015249400
13885169 127 18343304743020517192
13911987 19 15140950777973174027
14068700 675 18260831509740521772
14251764 18 17821449058573489944
14840074 17 17095518500245068442
14849402 71 18189058749723830580
14856354 85 18409731776962631375
14933364 13 18202001032305560024
15021287 119 17676213468017471293
15119646 104 17604143749408121162
15183329 4 17095238133849727794
15301273 46 17917994958542564892
15348495 7 17774713281425954218
15352257 5 18412263909471704510
15419008 47 17632291251300762792
15419008 91 18058995234314462216
15510794 2 17632300051128854942
15716309 27 17676487229021557400
1577012 14 17822290163446345096
15849732 13 17632576046260500164
17093844 174 17774999086025117537
17780758 139 18409165511579339365
20105231 36 17346606283532793998
20281389 69 14836402528215485570
21150785 3 13695586663652065654
21792961 116 16988568949299517492
220451 1 18187361013554073098
23035841 295 18333449850180792266
23081809 10 17822015315382892436
23389318 12 17095524032874965782
23516275 137 18193576488125135730
23522609 53 17751104473382035020
23559900 14 18273494576920520049
34797466 226 17821736005929275886
397830 11 17773867769953427544
4325135 7 18113337509668284390
437795 51 17561091280970072790
44389302 135 18042391458406431426
4938544 92 18336261233369428381
5219985 9 17676488345929846156
5265222 85 18200315553804609046
54039377 194 17677059066080551075
57527295 17 16557617514677568449
58260988 114 16589171458200450251
5969126 39 16515677832160119005
6441014 3 17467363643941531435
6691757 9 18412549795975141387
9953998 17 18272370867531381345

> <PUBCHEM_SHAPE_MULTIPOLES>
524.87
25.35
1.62
1.32
35.13
0.65
0.01
3.61
-2.74
-4.72
0.02
1.95
-0.13
-0.86

> <PUBCHEM_SHAPE_SELFOVERLAP>
1167.807

> <PUBCHEM_SHAPE_VOLUME>
281

> <PUBCHEM_COORDINATE_TYPE>
2
5
10

$$$$
