135741883
  -OEChem-10052120443D

 25 27  0     0  0  0  0  0  0999 V2000
   -2.7644    3.3521   -0.2754 I   0  0  0  0  0  0  0  0  0  0  0  0
   -2.4776   -2.7753    0.2247 O   0  0  0  0  0  0  0  0  0  0  0  0
   -1.4502   -0.7577    0.0611 N   0  0  0  0  0  0  0  0  0  0  0  0
   -0.1815    1.0737   -0.0892 N   0  0  0  0  0  0  0  0  0  0  0  0
   -3.7462   -0.8098    0.0657 N   0  0  0  0  0  0  0  0  0  0  0  0
   -1.4223    0.6261   -0.0522 C   0  0  0  0  0  0  0  0  0  0  0  0
    0.6132   -0.0367    0.0016 C   0  0  0  0  0  0  0  0  0  0  0  0
   -0.1423   -1.1789    0.0954 C   0  0  0  0  0  0  0  0  0  0  0  0
    2.0423   -0.0001    0.0004 C   0  0  0  0  0  0  0  0  0  0  0  0
   -2.5909   -1.5634    0.1273 C   0  0  0  0  0  0  0  0  0  0  0  0
   -2.6713    1.3022   -0.1072 C   0  0  0  0  0  0  0  0  0  0  0  0
   -3.7869    0.5593   -0.0463 C   0  0  0  0  0  0  0  0  0  0  0  0
    2.7663   -1.0747   -0.5158 C   0  0  0  0  0  0  0  0  0  0  0  0
    2.7127    1.1094    0.5152 C   0  0  0  0  0  0  0  0  0  0  0  0
    4.1608   -1.0400   -0.5171 C   0  0  0  0  0  0  0  0  0  0  0  0
    4.1071    1.1443    0.5140 C   0  0  0  0  0  0  0  0  0  0  0  0
    4.8312    0.0695   -0.0022 C   0  0  0  0  0  0  0  0  0  0  0  0
    0.1142   -2.2261    0.1886 H   0  0  0  0  0  0  0  0  0  0  0  0
   -4.6383   -1.2946    0.1051 H   0  0  0  0  0  0  0  0  0  0  0  0
   -4.7855    0.9798   -0.0808 H   0  0  0  0  0  0  0  0  0  0  0  0
    2.2764   -1.9494   -0.9362 H   0  0  0  0  0  0  0  0  0  0  0  0
    2.1693    1.9570    0.9262 H   0  0  0  0  0  0  0  0  0  0  0  0
    4.7249   -1.8754   -0.9215 H   0  0  0  0  0  0  0  0  0  0  0  0
    4.6294    2.0077    0.9155 H   0  0  0  0  0  0  0  0  0  0  0  0
    5.9169    0.0968   -0.0036 H   0  0  0  0  0  0  0  0  0  0  0  0
  1 11  1  0  0  0  0
  2 10  2  0  0  0  0
  3  6  1  0  0  0  0
  3  8  1  0  0  0  0
  3 10  1  0  0  0  0
  4  6  2  0  0  0  0
  4  7  1  0  0  0  0
  5 10  1  0  0  0  0
  5 12  1  0  0  0  0
  5 19  1  0  0  0  0
  6 11  1  0  0  0  0
  7  8  2  0  0  0  0
  7  9  1  0  0  0  0
  8 18  1  0  0  0  0
  9 13  2  0  0  0  0
  9 14  1  0  0  0  0
 11 12  2  0  0  0  0
 12 20  1  0  0  0  0
 13 15  1  0  0  0  0
 13 21  1  0  0  0  0
 14 16  2  0  0  0  0
 14 22  1  0  0  0  0
 15 17  2  0  0  0  0
 15 23  1  0  0  0  0
 16 17  1  0  0  0  0
 16 24  1  0  0  0  0
 17 25  1  0  0  0  0
M  END
> <PUBCHEM_COMPOUND_CID>
135741883

> <PUBCHEM_CONFORMER_RMSD>
0.6

> <PUBCHEM_CONFORMER_DIVERSEORDER>
1
2

> <PUBCHEM_MMFF94_PARTIAL_CHARGES>
25
1 -0.09
10 0.64
11 0.14
12 -0.04
13 -0.15
14 -0.15
15 -0.15
16 -0.15
17 -0.15
18 0.15
19 0.37
2 -0.57
20 0.15
21 0.15
22 0.15
23 0.15
24 0.15
25 0.15
3 0.29
4 -0.57
5 -0.54
6 0.14
7 0.17
8 -0.3
9 0.05

> <PUBCHEM_EFFECTIVE_ROTOR_COUNT>
1

> <PUBCHEM_PHARMACOPHORE_FEATURES>
6
1 1 hydrophobe
1 2 acceptor
1 5 donor
5 3 4 6 7 8 rings
6 3 5 6 10 11 12 rings
6 9 13 14 15 16 17 rings

> <PUBCHEM_HEAVY_ATOM_COUNT>
17

> <PUBCHEM_ATOM_DEF_STEREO_COUNT>
0

> <PUBCHEM_ATOM_UDEF_STEREO_COUNT>
0

> <PUBCHEM_BOND_DEF_STEREO_COUNT>
0

> <PUBCHEM_BOND_UDEF_STEREO_COUNT>
0

> <PUBCHEM_ISOTOPIC_ATOM_COUNT>
0

> <PUBCHEM_COMPONENT_COUNT>
1

> <PUBCHEM_CACTVS_TAUTO_COUNT>
-1

> <PUBCHEM_CONFORMER_ID>
081741BB00000001

> <PUBCHEM_MMFF94_ENERGY>
38.1126

> <PUBCHEM_FEATURE_SELFOVERLAP>
30.572

> <PUBCHEM_SHAPE_FINGERPRINT>
10319926 262 18339342103825929546
10411042 1 18049162469257034835
10608611 8 18341609317660418072
10616163 171 18411139160141278534
10646746 165 18410292467663157860
10680689 15 18335428958310244328
11132069 177 18335700559030605729
11405975 8 18410291372625624882
11615757 297 16917071096257262514
12107183 9 17757260488829960392
12173636 292 18337105653661182125
12236239 1 17240201036774082220
12390115 104 18126862503523414865
12403259 226 18270675480034736089
12500047 106 18337669698567428556
13140716 1 18191596452540060105
13296908 3 18413389860569429798
13544592 145 18125732192615983678
14289901 80 18334297595521525336
14508225 48 18196075850269356541
14866123 147 16688806654414252594
15042514 8 18335710489781341659
15196674 1 18412263934544441858
15219456 202 18272370880073235806
15375358 24 18343582928068187982
16945 1 18408319982541801993
1741750 31 18265893549615760305
17804303 29 18411985775372336393
17834074 16 18413109463582076622
18186145 218 18129385916830963512
19141452 34 18201163268943823383
200 152 17346596378462274943
20279233 1 18343588442895821294
20510252 161 18341612586278262665
20645477 56 18337958883216404069
20645477 70 17203050673623414806
21065198 57 18411698768925959504
21065201 7 18409165494151524506
21267235 1 18409739481633079482
221490 88 18340493369535464282
22182937 141 18198910218988830153
22943178 12 18272650143257768572
2306618 200 18272940414290786697
23402539 116 18342170090587315783
23557571 272 18342746195551233276
23559900 14 18271243790945995758
23845131 108 17761226423420369769
3071541 12 17330272771792376429
335352 9 18050567335720691494
3545911 37 18413672409372328000
4028521 119 18335412431550642941
4214541 1 18411419475560812456
474 4 16589445283381977124
5104073 3 18413106161068640610
559249 180 18191301568712855162
573450 72 18187352204386186730
69090 78 18272366477415460847
77779 3 18411983568133504228
8809292 202 18409452513435356459
9709674 26 18343024367597899030

> <PUBCHEM_SHAPE_MULTIPOLES>
340.98
8.87
2.72
0.69
6.56
0.79
-0.02
1.63
-0.22
-3.56
-0.01
0.17
0.1
0.81

> <PUBCHEM_SHAPE_SELFOVERLAP>
738.689

> <PUBCHEM_SHAPE_VOLUME>
191.7

> <PUBCHEM_COORDINATE_TYPE>
2
5
10

$$$$
