46223479
  -OEChem-10062121553D

 66 70  0     0  0  0  0  0  0999 V2000
   -3.4780   -1.0736   -1.1820 S   0  0  0  0  0  0  0  0  0  0  0  0
   -9.8366   -1.4435   -1.5068 O   0  0  0  0  0  0  0  0  0  0  0  0
    5.2879    0.2517   -0.8190 O   0  0  0  0  0  0  0  0  0  0  0  0
   11.7762    0.4849   -0.7702 O   0  0  0  0  0  0  0  0  0  0  0  0
   -7.9425    0.6210   -0.3444 N   0  0  0  0  0  0  0  0  0  0  0  0
   -7.6191    0.7290   -1.6444 N   0  0  0  0  0  0  0  0  0  0  0  0
   -2.8974    2.4495    1.5224 N   0  0  0  0  0  0  0  0  0  0  0  0
   -0.6106    1.8791    1.7024 N   0  0  0  0  0  0  0  0  0  0  0  0
    4.2967   -1.0094    0.8889 N   0  0  0  0  0  0  0  0  0  0  0  0
    6.5978   -0.8383    0.7825 N   0  0  0  0  0  0  0  0  0  0  0  0
   -9.8667   -1.0871   -0.1230 C   0  0  0  0  0  0  0  0  0  0  0  0
   -9.3789    0.3690    0.0532 C   0  0  0  0  0  0  0  0  0  0  0  0
   -5.7870    0.9715   -0.3020 C   0  0  0  0  0  0  0  0  0  0  0  0
   -9.0080   -2.1013    0.6351 C   0  0  0  0  0  0  0  0  0  0  0  0
  -11.3222   -1.1985    0.3476 C   0  0  0  0  0  0  0  0  0  0  0  0
   -4.4577    1.1673    0.1871 C   0  0  0  0  0  0  0  0  0  0  0  0
   -6.8809    0.7587    0.5009 C   0  0  0  0  0  0  0  0  0  0  0  0
   -3.4049    0.3117   -0.1590 C   0  0  0  0  0  0  0  0  0  0  0  0
   -2.1112    0.5189    0.3280 C   0  0  0  0  0  0  0  0  0  0  0  0
   -1.2064   -0.4815   -0.1613 C   0  0  0  0  0  0  0  0  0  0  0  0
   -6.3011    0.9430   -1.6122 C   0  0  0  0  0  0  0  0  0  0  0  0
   -1.8918    1.6140    1.1787 C   0  0  0  0  0  0  0  0  0  0  0  0
    0.2043   -0.6174    0.1073 C   0  0  0  0  0  0  0  0  0  0  0  0
   -4.1295    2.2137    1.0310 C   0  0  0  0  0  0  0  0  0  0  0  0
   -1.8162   -1.3983   -0.9844 C   0  0  0  0  0  0  0  0  0  0  0  0
    1.1356    0.0107   -0.7198 C   0  0  0  0  0  0  0  0  0  0  0  0
    0.6373   -1.3762    1.1947 C   0  0  0  0  0  0  0  0  0  0  0  0
    2.9324   -0.8792    0.6276 C   0  0  0  0  0  0  0  0  0  0  0  0
    2.4996   -0.1202   -0.4598 C   0  0  0  0  0  0  0  0  0  0  0  0
    2.0014   -1.5072    1.4548 C   0  0  0  0  0  0  0  0  0  0  0  0
    5.3896   -0.4562    0.1778 C   0  0  0  0  0  0  0  0  0  0  0  0
    7.9141   -0.5016    0.3875 C   0  0  0  0  0  0  0  0  0  0  0  0
    9.0039   -0.9780    1.1163 C   0  0  0  0  0  0  0  0  0  0  0  0
    8.1222    0.3061   -0.7305 C   0  0  0  0  0  0  0  0  0  0  0  0
   10.3017   -0.6464    0.7274 C   0  0  0  0  0  0  0  0  0  0  0  0
    9.4200    0.6378   -1.1195 C   0  0  0  0  0  0  0  0  0  0  0  0
   10.5097    0.1616   -0.3905 C   0  0  0  0  0  0  0  0  0  0  0  0
   11.9164    1.3146   -1.9225 C   0  0  0  0  0  0  0  0  0  0  0  0
   -9.9551    1.0602   -0.5742 H   0  0  0  0  0  0  0  0  0  0  0  0
   -9.4527    0.6954    1.0971 H   0  0  0  0  0  0  0  0  0  0  0  0
   -7.9901   -2.1391    0.2322 H   0  0  0  0  0  0  0  0  0  0  0  0
   -9.4118   -3.1150    0.5293 H   0  0  0  0  0  0  0  0  0  0  0  0
   -8.9537   -1.8629    1.7023 H   0  0  0  0  0  0  0  0  0  0  0  0
  -11.9681   -0.5270   -0.2297 H   0  0  0  0  0  0  0  0  0  0  0  0
  -11.7118   -2.2111    0.1912 H   0  0  0  0  0  0  0  0  0  0  0  0
  -11.4222   -0.9492    1.4090 H   0  0  0  0  0  0  0  0  0  0  0  0
   -6.9952    0.6915    1.5747 H   0  0  0  0  0  0  0  0  0  0  0  0
   -5.7760    1.0725   -2.5483 H   0  0  0  0  0  0  0  0  0  0  0  0
  -10.1648   -2.3548   -1.5929 H   0  0  0  0  0  0  0  0  0  0  0  0
   -4.8782    2.9330    1.3529 H   0  0  0  0  0  0  0  0  0  0  0  0
   -1.3730   -2.2488   -1.4854 H   0  0  0  0  0  0  0  0  0  0  0  0
    0.8133    0.6067   -1.5706 H   0  0  0  0  0  0  0  0  0  0  0  0
   -0.0756   -1.8711    1.8501 H   0  0  0  0  0  0  0  0  0  0  0  0
    3.1558    0.3964   -1.1454 H   0  0  0  0  0  0  0  0  0  0  0  0
    2.3246   -2.1011    2.3060 H   0  0  0  0  0  0  0  0  0  0  0  0
   -0.5065    2.6814    2.3102 H   0  0  0  0  0  0  0  0  0  0  0  0
    0.1966    1.3141    1.5022 H   0  0  0  0  0  0  0  0  0  0  0  0
    4.5343   -1.5775    1.6983 H   0  0  0  0  0  0  0  0  0  0  0  0
    6.5287   -1.4301    1.6066 H   0  0  0  0  0  0  0  0  0  0  0  0
    8.8557   -1.6083    1.9894 H   0  0  0  0  0  0  0  0  0  0  0  0
    7.3321    0.7129   -1.3452 H   0  0  0  0  0  0  0  0  0  0  0  0
   11.1468   -1.0203    1.2990 H   0  0  0  0  0  0  0  0  0  0  0  0
    9.5111    1.2689   -1.9971 H   0  0  0  0  0  0  0  0  0  0  0  0
   11.5302    0.8231   -2.8219 H   0  0  0  0  0  0  0  0  0  0  0  0
   11.4694    2.3020   -1.7643 H   0  0  0  0  0  0  0  0  0  0  0  0
   12.9887    1.4711   -2.0795 H   0  0  0  0  0  0  0  0  0  0  0  0
  1 18  1  0  0  0  0
  1 25  1  0  0  0  0
  2 11  1  0  0  0  0
  2 49  1  0  0  0  0
  3 31  2  0  0  0  0
  4 37  1  0  0  0  0
  4 38  1  0  0  0  0
  5  6  1  0  0  0  0
  5 12  1  0  0  0  0
  5 17  1  0  0  0  0
  6 21  2  0  0  0  0
  7 22  2  0  0  0  0
  7 24  1  0  0  0  0
  8 22  1  0  0  0  0
  8 56  1  0  0  0  0
  8 57  1  0  0  0  0
  9 28  1  0  0  0  0
  9 31  1  0  0  0  0
  9 58  1  0  0  0  0
 10 31  1  0  0  0  0
 10 32  1  0  0  0  0
 10 59  1  0  0  0  0
 11 12  1  0  0  0  0
 11 14  1  0  0  0  0
 11 15  1  0  0  0  0
 12 39  1  0  0  0  0
 12 40  1  0  0  0  0
 13 16  1  0  0  0  0
 13 17  2  0  0  0  0
 13 21  1  0  0  0  0
 14 41  1  0  0  0  0
 14 42  1  0  0  0  0
 14 43  1  0  0  0  0
 15 44  1  0  0  0  0
 15 45  1  0  0  0  0
 15 46  1  0  0  0  0
 16 18  1  0  0  0  0
 16 24  2  0  0  0  0
 17 47  1  0  0  0  0
 18 19  2  0  0  0  0
 19 20  1  0  0  0  0
 19 22  1  0  0  0  0
 20 23  1  0  0  0  0
 20 25  2  0  0  0  0
 21 48  1  0  0  0  0
 23 26  2  0  0  0  0
 23 27  1  0  0  0  0
 24 50  1  0  0  0  0
 25 51  1  0  0  0  0
 26 29  1  0  0  0  0
 26 52  1  0  0  0  0
 27 30  2  0  0  0  0
 27 53  1  0  0  0  0
 28 29  2  0  0  0  0
 28 30  1  0  0  0  0
 29 54  1  0  0  0  0
 30 55  1  0  0  0  0
 32 33  2  0  0  0  0
 32 34  1  0  0  0  0
 33 35  1  0  0  0  0
 33 60  1  0  0  0  0
 34 36  2  0  0  0  0
 34 61  1  0  0  0  0
 35 37  2  0  0  0  0
 35 62  1  0  0  0  0
 36 37  1  0  0  0  0
 36 63  1  0  0  0  0
 38 64  1  0  0  0  0
 38 65  1  0  0  0  0
 38 66  1  0  0  0  0
M  END
> <PUBCHEM_COMPOUND_CID>
46223479

> <PUBCHEM_CONFORMER_RMSD>
1

> <PUBCHEM_CONFORMER_DIVERSEORDER>
1
24
13
20
53
28
30
16
29
54
12
23
14
39
11
26
35
34
37
25
55
27
15
47
48
51
31
43
50
46
52
19
42
18
40
9
6
36
49
41
10
22
8
21
5
44
38
7
45
4
32
17
33
2
3

> <PUBCHEM_MMFF94_PARTIAL_CHARGES>
52
1 -0.08
10 -0.55
11 0.28
12 0.26
13 -0.05
16 0.05
17 -0.3
18 0.04
2 -0.68
20 -0.05
21 0.14
22 0.41
23 0.05
24 0.16
25 -0.11
26 -0.15
27 -0.15
28 0.12
29 -0.15
3 -0.57
30 -0.15
31 0.69
32 0.12
33 -0.15
34 -0.15
35 -0.15
36 -0.15
37 0.08
38 0.28
4 -0.36
47 0.15
48 0.15
49 0.4
5 0.31
50 0.15
51 0.15
52 0.15
53 0.15
54 0.15
55 0.15
56 0.4
57 0.4
58 0.37
59 0.37
6 -0.71
60 0.15
61 0.15
62 0.15
63 0.15
7 -0.62
8 -0.9
9 -0.55

> <PUBCHEM_EFFECTIVE_ROTOR_COUNT>
9

> <PUBCHEM_PHARMACOPHORE_FEATURES>
15
1 10 donor
1 2 acceptor
1 2 donor
1 3 acceptor
1 4 acceptor
1 6 acceptor
1 8 donor
1 9 donor
3 11 14 15 hydrophobe
3 7 8 22 cation
5 1 18 19 20 25 rings
5 5 6 13 17 21 rings
6 23 26 27 28 29 30 rings
6 32 33 34 35 36 37 rings
6 7 16 18 19 22 24 rings

> <PUBCHEM_HEAVY_ATOM_COUNT>
38

> <PUBCHEM_ATOM_DEF_STEREO_COUNT>
0

> <PUBCHEM_ATOM_UDEF_STEREO_COUNT>
0

> <PUBCHEM_BOND_DEF_STEREO_COUNT>
0

> <PUBCHEM_BOND_UDEF_STEREO_COUNT>
0

> <PUBCHEM_ISOTOPIC_ATOM_COUNT>
0

> <PUBCHEM_COMPONENT_COUNT>
1

> <PUBCHEM_CACTVS_TAUTO_COUNT>
6

> <PUBCHEM_CONFORMER_ID>
02C1507700000001

> <PUBCHEM_MMFF94_ENERGY>
124.8893

> <PUBCHEM_FEATURE_SELFOVERLAP>
76.237

> <PUBCHEM_SHAPE_FINGERPRINT>
10 15 16081089269292727866
10076449 9 17275102821331425427
10162869 55 18040154020092152150
10674148 151 11167938061296938279
12013929 94 18260268569189191091
12082328 90 14045743690938379456
12089408 11 18337952294947166200
12559415 90 16226038977560871068
12664476 115 18408039610955344752
12741549 16 11169911693639435710
12758862 11 17132104776141444154
12838862 33 12757147978733469153
13740195 50 16443066105868483214
14118638 360 17846502470637298322
14251764 46 18410573980861771598
14344974 52 18271523187110887008
15061470 23 17749104474230402949
15065858 18 15068344506094949752
15219723 13 15285346312478295840
15289351 153 14490191605211750117
15392192 104 18335698322197358834
15392192 29 17561077038884515967
17686467 74 18342450440030030609
18335252 98 18131070416227161655
20105231 36 17203887466222783071
21591340 7 17967250897523335874
21792961 116 16272211873648743150
232437 2 18186237324959490122
249057 3 17989200465381173412
3092352 35 18410292490008770274
335507 130 17489585662610913517
3525247 94 18040711442307386170
4874694 18 14201399369806998104
5381727 24 18186799167112302634
54039377 194 18201717362985462013
57828716 42 18409168853016695955
59521270 166 8862948277823391307
636775 8 18201718471013054399
6673363 416 18272653428713507129
6691757 9 18271815622100761058
67123 10 17967812743031975554
9663363 56 17918272044579760981
9937071 3 11455892465063705820
9953998 17 14345800444112470432

> <PUBCHEM_SHAPE_MULTIPOLES>
738.38
46.06
1.79
1.45
55.18
0.2
-0.07
-2.58
-12.75
-2.29
0.51
0.08
0.36
-2.73

> <PUBCHEM_SHAPE_SELFOVERLAP>
1608.861

> <PUBCHEM_SHAPE_VOLUME>
406.4

> <PUBCHEM_COORDINATE_TYPE>
2
5
10

$$$$
