46228951
  -OEChem-10062122033D

 45 48  0     0  0  0  0  0  0999 V2000
   -2.9951    4.0173    0.4928 F   0  0  0  0  0  0  0  0  0  0  0  0
    1.6291    3.2360   -0.1093 F   0  0  0  0  0  0  0  0  0  0  0  0
   -0.4695    4.9635    0.0755 F   0  0  0  0  0  0  0  0  0  0  0  0
    5.9029    0.3261   -1.3472 F   0  0  0  0  0  0  0  0  0  0  0  0
    7.7401    0.4363   -0.1689 F   0  0  0  0  0  0  0  0  0  0  0  0
    5.9226    1.3783    0.5962 F   0  0  0  0  0  0  0  0  0  0  0  0
   -3.4699    1.3033    0.7383 O   0  0  0  0  0  0  0  0  0  0  0  0
   -4.9707   -3.6584    2.0611 O   0  0  0  0  0  0  0  0  0  0  0  0
    6.0819   -0.9034    0.5729 O   0  0  0  0  0  0  0  0  0  0  0  0
    0.2237   -1.6096    0.3384 O   0  0  0  0  0  0  0  0  0  0  0  0
   -4.3371   -1.4814    1.3700 N   0  0  0  0  0  0  0  0  0  0  0  0
   -5.2122   -2.9022   -0.1725 N   0  0  0  0  0  0  0  0  0  0  0  0
    1.2469    0.4965    0.1221 N   0  0  0  0  0  0  0  0  0  0  0  0
   -4.3820   -0.8235    0.1409 C   0  0  0  0  0  0  0  0  0  0  0  0
   -4.9179   -1.6937   -0.8038 C   0  0  0  0  0  0  0  0  0  0  0  0
   -3.9903    0.4561   -0.1809 C   0  0  0  0  0  0  0  0  0  0  0  0
   -5.0900   -1.3302   -2.1202 C   0  0  0  0  0  0  0  0  0  0  0  0
   -4.1555    0.8487   -1.5129 C   0  0  0  0  0  0  0  0  0  0  0  0
   -4.8553   -2.7966    1.2016 C   0  0  0  0  0  0  0  0  0  0  0  0
   -2.1867    1.7874    0.5245 C   0  0  0  0  0  0  0  0  0  0  0  0
   -4.6992   -0.0343   -2.4717 C   0  0  0  0  0  0  0  0  0  0  0  0
    0.1758    1.3857    0.2165 C   0  0  0  0  0  0  0  0  0  0  0  0
   -1.1143    0.9004    0.4308 C   0  0  0  0  0  0  0  0  0  0  0  0
   -1.9689    3.1601    0.4042 C   0  0  0  0  0  0  0  0  0  0  0  0
    0.3936    2.7583    0.0961 C   0  0  0  0  0  0  0  0  0  0  0  0
   -0.6788    3.6454    0.1900 C   0  0  0  0  0  0  0  0  0  0  0  0
    2.5283   -1.5788    0.0229 C   0  0  0  0  0  0  0  0  0  0  0  0
    1.2144   -0.9030    0.1859 C   0  0  0  0  0  0  0  0  0  0  0  0
    3.7028   -0.9155    0.3785 C   0  0  0  0  0  0  0  0  0  0  0  0
    2.5867   -2.8765   -0.4856 C   0  0  0  0  0  0  0  0  0  0  0  0
    4.9357   -1.5499    0.2258 C   0  0  0  0  0  0  0  0  0  0  0  0
    3.8195   -3.5107   -0.6387 C   0  0  0  0  0  0  0  0  0  0  0  0
    4.9941   -2.8476   -0.2828 C   0  0  0  0  0  0  0  0  0  0  0  0
    6.3952    0.3163   -0.0903 C   0  0  0  0  0  0  0  0  0  0  0  0
   -3.9899   -1.0779    2.2313 H   0  0  0  0  0  0  0  0  0  0  0  0
   -5.6131   -3.7126   -0.6283 H   0  0  0  0  0  0  0  0  0  0  0  0
   -5.5075   -2.0080   -2.8550 H   0  0  0  0  0  0  0  0  0  0  0  0
   -3.8748    1.8499   -1.8321 H   0  0  0  0  0  0  0  0  0  0  0  0
   -4.8166    0.3020   -3.4987 H   0  0  0  0  0  0  0  0  0  0  0  0
   -1.3434   -0.1483    0.5530 H   0  0  0  0  0  0  0  0  0  0  0  0
    2.1365    0.9500   -0.0660 H   0  0  0  0  0  0  0  0  0  0  0  0
    3.6883    0.0765    0.8201 H   0  0  0  0  0  0  0  0  0  0  0  0
    1.6842   -3.4091   -0.7736 H   0  0  0  0  0  0  0  0  0  0  0  0
    3.8654   -4.5205   -1.0359 H   0  0  0  0  0  0  0  0  0  0  0  0
    5.9515   -3.3467   -0.4046 H   0  0  0  0  0  0  0  0  0  0  0  0
  1 24  1  0  0  0  0
  2 25  1  0  0  0  0
  3 26  1  0  0  0  0
  4 34  1  0  0  0  0
  5 34  1  0  0  0  0
  6 34  1  0  0  0  0
  7 16  1  0  0  0  0
  7 20  1  0  0  0  0
  8 19  2  0  0  0  0
  9 31  1  0  0  0  0
  9 34  1  0  0  0  0
 10 28  2  0  0  0  0
 11 14  1  0  0  0  0
 11 19  1  0  0  0  0
 11 35  1  0  0  0  0
 12 15  1  0  0  0  0
 12 19  1  0  0  0  0
 12 36  1  0  0  0  0
 13 22  1  0  0  0  0
 13 28  1  0  0  0  0
 13 41  1  0  0  0  0
 14 15  2  0  0  0  0
 14 16  1  0  0  0  0
 15 17  1  0  0  0  0
 16 18  2  0  0  0  0
 17 21  2  0  0  0  0
 17 37  1  0  0  0  0
 18 21  1  0  0  0  0
 18 38  1  0  0  0  0
 20 23  1  0  0  0  0
 20 24  2  0  0  0  0
 21 39  1  0  0  0  0
 22 23  2  0  0  0  0
 22 25  1  0  0  0  0
 23 40  1  0  0  0  0
 24 26  1  0  0  0  0
 25 26  2  0  0  0  0
 27 28  1  0  0  0  0
 27 29  2  0  0  0  0
 27 30  1  0  0  0  0
 29 31  1  0  0  0  0
 29 42  1  0  0  0  0
 30 32  2  0  0  0  0
 30 43  1  0  0  0  0
 31 33  2  0  0  0  0
 32 33  1  0  0  0  0
 32 44  1  0  0  0  0
 33 45  1  0  0  0  0
M  END
> <PUBCHEM_COMPOUND_CID>
46228951

> <PUBCHEM_CONFORMER_RMSD>
1.2

> <PUBCHEM_CONFORMER_DIVERSEORDER>
1
31
104
57
12
67
92
64
58
46
35
42
51
20
10
53
72
70
71
47
5
93
66
65
103
80
27
82
85
99
34
102
83
48
33
81
75
69
18
6
100
17
40
86
61
21
45
79
29
90
2
74
84
98
38
16
28
78
32
101
7
91
89
68
96
87
39
4
52
3
94
37
44
36
95
88
23
8
105
9
19
77
24
13
54
56
59
25
73
55
15
50
63
26
11
62
14
30
60
43
106
22
97
41
76
49

> <PUBCHEM_MMFF94_PARTIAL_CHARGES>
45
1 -0.19
10 -0.57
11 -0.55
12 -0.55
13 -0.55
14 0.12
15 0.12
16 0.08
17 -0.15
18 -0.15
19 0.69
2 -0.19
20 0.08
21 -0.15
22 0.12
23 -0.15
24 0.19
25 0.19
26 0.19
27 0.09
28 0.54
29 -0.15
3 -0.19
30 -0.15
31 0.08
32 -0.15
33 -0.15
34 1.3
35 0.37
36 0.37
37 0.15
38 0.15
39 0.15
4 -0.34
40 0.15
41 0.37
42 0.15
43 0.15
44 0.15
45 0.15
5 -0.34
6 -0.34
7 -0.17
8 -0.57
9 -0.36

> <PUBCHEM_EFFECTIVE_ROTOR_COUNT>
7

> <PUBCHEM_PHARMACOPHORE_FEATURES>
11
1 10 acceptor
1 11 donor
1 12 donor
1 13 donor
1 7 acceptor
1 8 acceptor
1 9 acceptor
5 11 12 14 15 19 rings
6 14 15 16 17 18 21 rings
6 20 22 23 24 25 26 rings
6 27 29 30 31 32 33 rings

> <PUBCHEM_HEAVY_ATOM_COUNT>
34

> <PUBCHEM_ATOM_DEF_STEREO_COUNT>
0

> <PUBCHEM_ATOM_UDEF_STEREO_COUNT>
0

> <PUBCHEM_BOND_DEF_STEREO_COUNT>
0

> <PUBCHEM_BOND_UDEF_STEREO_COUNT>
0

> <PUBCHEM_ISOTOPIC_ATOM_COUNT>
0

> <PUBCHEM_COMPONENT_COUNT>
1

> <PUBCHEM_CACTVS_TAUTO_COUNT>
6

> <PUBCHEM_CONFORMER_ID>
02C165D700000001

> <PUBCHEM_MMFF94_ENERGY>
117.7536

> <PUBCHEM_FEATURE_SELFOVERLAP>
55.984

> <PUBCHEM_SHAPE_FINGERPRINT>
10462674 369 17171552040072758731
11135609 12 18334583468734541147
11227688 84 18053093206340942647
11297010 23 16174245051889970541
11488393 25 18118410785231230481
14068700 686 18270961250527362262
14659021 117 18264763277489986209
14790565 3 17260190995243782641
14840074 17 17846775230392194934
15064986 266 18268436737506744663
15250474 111 17975124349528914546
15274700 242 17753609040821124683
15927050 60 17476643547922583820
16628084 112 17687738338941728503
19246450 95 10086813467962185094
19315092 285 16700593810064057059
19611394 137 18189344639884340570
21796203 349 18052283926896403627
23559900 14 18338223943018111145
4073 2 18337675204958426642
4280585 95 18263629715208467481
550186 72 18411418384861412508
57527452 28 15840112604495125181
613672 6 18338497712870764323
6431902 208 18411698789958100183
6669772 16 17836366325769636180
6673363 416 18342187678980436324

> <PUBCHEM_SHAPE_MULTIPOLES>
617.64
16.3
5.3
1.35
18.72
3.35
-0.46
-10.49
-2.26
-2.73
1.14
-2.63
-0.84
1.13

> <PUBCHEM_SHAPE_SELFOVERLAP>
1376.201

> <PUBCHEM_SHAPE_VOLUME>
329.2

> <PUBCHEM_COORDINATE_TYPE>
2
5
10

$$$$
