21362697
  -OEChem-10062121583D

 41 44  0     0  0  0  0  0  0999 V2000
    0.4730    2.2581   -0.4001 Cl  0  0  0  0  0  0  0  0  0  0  0  0
    0.7344   -3.1734   -0.5409 Cl  0  0  0  0  0  0  0  0  0  0  0  0
    1.8061   -0.4028   -0.6183 O   0  0  0  0  0  0  0  0  0  0  0  0
   -2.6247    1.5814   -0.0231 N   0  0  0  0  0  0  0  0  0  0  0  0
   -6.2136    0.8508    0.4151 N   0  0  0  0  0  0  0  0  0  0  0  0
    4.0753   -0.3331    0.1711 C   0  0  0  0  0  0  0  0  0  0  0  0
    4.3648    0.9323   -0.6474 C   0  0  0  0  0  0  0  0  0  0  0  0
    4.9703   -0.3951    1.4162 C   0  0  0  0  0  0  0  0  0  0  0  0
    5.8447    1.0451   -1.0066 C   0  0  0  0  0  0  0  0  0  0  0  0
    6.4492   -0.2799    1.0537 C   0  0  0  0  0  0  0  0  0  0  0  0
    6.7315    0.9744    0.2327 C   0  0  0  0  0  0  0  0  0  0  0  0
    2.6003   -0.3961    0.5634 C   0  0  0  0  0  0  0  0  0  0  0  0
    0.4505   -0.4699   -0.4507 C   0  0  0  0  0  0  0  0  0  0  0  0
   -1.6695    0.6019   -0.1630 C   0  0  0  0  0  0  0  0  0  0  0  0
   -2.3267   -0.6278   -0.1055 C   0  0  0  0  0  0  0  0  0  0  0  0
   -0.2849    0.7128   -0.3345 C   0  0  0  0  0  0  0  0  0  0  0  0
   -3.7206   -0.3590    0.0749 C   0  0  0  0  0  0  0  0  0  0  0  0
   -0.1766   -1.7123   -0.3970 C   0  0  0  0  0  0  0  0  0  0  0  0
   -3.8727    1.0262    0.1226 C   0  0  0  0  0  0  0  0  0  0  0  0
   -1.5621   -1.8073   -0.2248 C   0  0  0  0  0  0  0  0  0  0  0  0
   -4.8651   -1.1616    0.2022 C   0  0  0  0  0  0  0  0  0  0  0  0
   -5.1130    1.6281    0.2916 C   0  0  0  0  0  0  0  0  0  0  0  0
   -6.0704   -0.4929    0.3683 C   0  0  0  0  0  0  0  0  0  0  0  0
    4.2973   -1.1988   -0.4680 H   0  0  0  0  0  0  0  0  0  0  0  0
    4.0634    1.8217   -0.0791 H   0  0  0  0  0  0  0  0  0  0  0  0
    3.7781    0.9340   -1.5735 H   0  0  0  0  0  0  0  0  0  0  0  0
    4.8021   -1.3376    1.9508 H   0  0  0  0  0  0  0  0  0  0  0  0
    4.7046    0.4146    2.1079 H   0  0  0  0  0  0  0  0  0  0  0  0
    6.0246    1.9883   -1.5347 H   0  0  0  0  0  0  0  0  0  0  0  0
    6.1154    0.2361   -1.6962 H   0  0  0  0  0  0  0  0  0  0  0  0
    6.7547   -1.1660    0.4836 H   0  0  0  0  0  0  0  0  0  0  0  0
    7.0524   -0.2652    1.9684 H   0  0  0  0  0  0  0  0  0  0  0  0
    7.7856    0.9901   -0.0665 H   0  0  0  0  0  0  0  0  0  0  0  0
    6.5620    1.8627    0.8537 H   0  0  0  0  0  0  0  0  0  0  0  0
    2.3347    0.4641    1.1899 H   0  0  0  0  0  0  0  0  0  0  0  0
    2.4108   -1.3071    1.1436 H   0  0  0  0  0  0  0  0  0  0  0  0
   -2.0526   -2.7764   -0.1826 H   0  0  0  0  0  0  0  0  0  0  0  0
   -2.4337    2.5738   -0.0268 H   0  0  0  0  0  0  0  0  0  0  0  0
   -4.8198   -2.2443    0.1739 H   0  0  0  0  0  0  0  0  0  0  0  0
   -5.2558    2.6999    0.3321 H   0  0  0  0  0  0  0  0  0  0  0  0
   -6.9951   -1.0524    0.4736 H   0  0  0  0  0  0  0  0  0  0  0  0
  1 16  1  0  0  0  0
  2 18  1  0  0  0  0
  3 12  1  0  0  0  0
  3 13  1  0  0  0  0
  4 14  1  0  0  0  0
  4 19  1  0  0  0  0
  4 38  1  0  0  0  0
  5 22  2  0  0  0  0
  5 23  1  0  0  0  0
  6  7  1  0  0  0  0
  6  8  1  0  0  0  0
  6 12  1  0  0  0  0
  6 24  1  0  0  0  0
  7  9  1  0  0  0  0
  7 25  1  0  0  0  0
  7 26  1  0  0  0  0
  8 10  1  0  0  0  0
  8 27  1  0  0  0  0
  8 28  1  0  0  0  0
  9 11  1  0  0  0  0
  9 29  1  0  0  0  0
  9 30  1  0  0  0  0
 10 11  1  0  0  0  0
 10 31  1  0  0  0  0
 10 32  1  0  0  0  0
 11 33  1  0  0  0  0
 11 34  1  0  0  0  0
 12 35  1  0  0  0  0
 12 36  1  0  0  0  0
 13 16  1  0  0  0  0
 13 18  2  0  0  0  0
 14 15  1  0  0  0  0
 14 16  2  0  0  0  0
 15 17  1  0  0  0  0
 15 20  2  0  0  0  0
 17 19  2  0  0  0  0
 17 21  1  0  0  0  0
 18 20  1  0  0  0  0
 19 22  1  0  0  0  0
 20 37  1  0  0  0  0
 21 23  2  0  0  0  0
 21 39  1  0  0  0  0
 22 40  1  0  0  0  0
 23 41  1  0  0  0  0
M  END
> <PUBCHEM_COMPOUND_CID>
21362697

> <PUBCHEM_CONFORMER_RMSD>
0.8

> <PUBCHEM_CONFORMER_DIVERSEORDER>
1
9
3
7
8
2
4
10
5
6

> <PUBCHEM_MMFF94_PARTIAL_CHARGES>
20
1 -0.18
12 0.28
13 0.08
14 -0.15
16 0.18
18 0.18
19 -0.15
2 -0.18
20 -0.15
21 -0.15
22 0.16
23 0.16
3 -0.36
37 0.15
38 0.27
39 0.15
4 0.03
40 0.15
41 0.15
5 -0.62

> <PUBCHEM_EFFECTIVE_ROTOR_COUNT>
4.2

> <PUBCHEM_PHARMACOPHORE_FEATURES>
8
1 3 acceptor
1 4 cation
1 4 donor
1 5 acceptor
5 4 14 15 17 19 rings
6 13 14 15 16 18 20 rings
6 5 17 19 21 22 23 rings
6 6 7 8 9 10 11 rings

> <PUBCHEM_HEAVY_ATOM_COUNT>
23

> <PUBCHEM_ATOM_DEF_STEREO_COUNT>
0

> <PUBCHEM_ATOM_UDEF_STEREO_COUNT>
0

> <PUBCHEM_BOND_DEF_STEREO_COUNT>
0

> <PUBCHEM_BOND_UDEF_STEREO_COUNT>
0

> <PUBCHEM_ISOTOPIC_ATOM_COUNT>
0

> <PUBCHEM_COMPONENT_COUNT>
1

> <PUBCHEM_CACTVS_TAUTO_COUNT>
2

> <PUBCHEM_CONFORMER_ID>
0145F80900000001

> <PUBCHEM_MMFF94_ENERGY>
50.4107

> <PUBCHEM_FEATURE_SELFOVERLAP>
40.783

> <PUBCHEM_SHAPE_FINGERPRINT>
10 15 18260836990434620489
10411042 1 17764306537457314919
106641 1 18260552255392934057
10906281 52 18262537930374510817
1100329 8 18339079426971617176
11578080 2 16734934646106797687
11646440 116 17846788424442024945
12236239 1 18040434404184073380
12390115 104 17988374658754845177
12596602 18 17675924308953572696
12838862 33 18340473505507113493
13140716 1 18267304420924270499
13533116 47 17131557137783245822
13685833 64 11025805288200895901
14251764 18 18261392273269940456
14341114 328 18040431088226910090
14466204 15 18411419484082428881
14790565 3 18410581711903735556
15196674 1 18339364067724528855
15685185 35 16881062202982653212
15927050 60 17691972974342381700
17980427 23 18186526518430081015
1813 80 16950567632372724718
19784866 170 18411139108416541487
20281389 69 18410571795298690920
21033648 29 17845923134935192026
21267235 1 18187365399053246770
22224240 67 18343579655387491355
23198884 109 14620798201934242283
23402539 116 18343576365183878695
23559900 14 17917425475342837768
249999 5 18270963415159880694
25147074 1 18189901005129994958
29717793 49 10447933893250799312
3004659 81 18333456443826179404
3178227 256 18337123344942431491
3411729 13 18338517439439828914
34797466 226 17631742668102233196
34934 24 18340765941208572215
350125 39 18410013255934174413
3545911 37 18343865515979225558
3680242 22 18335424539221498008
4073 2 17822579416904644090
474229 33 18410856568467419423
5104073 3 18266187124090182067
5385378 56 18200320913565410027
5486654 2 18343586247903633023
5758199 1 18202570562248858899
59682541 35 18339368552287558531
59755656 215 18200600203163305678
67856867 119 18188215424004178293
7226269 152 18060421317605506009

> <PUBCHEM_SHAPE_MULTIPOLES>
461.24
16.32
2.2
0.91
8.63
0.92
-0.1
-4.74
-3.85
-0.71
0.44
1.08
0.04
-0.69

> <PUBCHEM_SHAPE_SELFOVERLAP>
993.256

> <PUBCHEM_SHAPE_VOLUME>
256.9

> <PUBCHEM_COORDINATE_TYPE>
2
5
10

$$$$
