5207138
  -OEChem-10052120443D

 28 30  0     0  0  0  0  0  0999 V2000
    1.0695   -2.5449   -0.0001 N   0  0  0  0  0  0  0  0  0  0  0  0
    0.0729   -3.4466   -0.0006 N   0  0  0  0  0  0  0  0  0  0  0  0
   -3.3068    2.0483    0.0001 N   0  0  0  0  0  0  0  0  0  0  0  0
    0.6411   -1.2498    0.0002 C   0  0  0  0  0  0  0  0  0  0  0  0
   -0.7313   -1.3086    0.0000 C   0  0  0  0  0  0  0  0  0  0  0  0
    1.5603   -0.1379    0.0006 C   0  0  0  0  0  0  0  0  0  0  0  0
   -1.6036   -0.1728    0.0000 C   0  0  0  0  0  0  0  0  0  0  0  0
   -1.0247   -2.6855   -0.0006 C   0  0  0  0  0  0  0  0  0  0  0  0
    2.0051    0.3999    1.2084 C   0  0  0  0  0  0  0  0  0  0  0  0
    2.0036    0.3999   -1.2075 C   0  0  0  0  0  0  0  0  0  0  0  0
   -2.0315    0.3832    1.2026 C   0  0  0  0  0  0  0  0  0  0  0  0
   -2.0296    0.3847   -1.2027 C   0  0  0  0  0  0  0  0  0  0  0  0
    2.8930    1.4757    1.2078 C   0  0  0  0  0  0  0  0  0  0  0  0
    2.8917    1.4755   -1.2081 C   0  0  0  0  0  0  0  0  0  0  0  0
    3.3363    2.0134   -0.0004 C   0  0  0  0  0  0  0  0  0  0  0  0
   -2.8739    1.4820    1.1489 C   0  0  0  0  0  0  0  0  0  0  0  0
   -2.8722    1.4835   -1.1487 C   0  0  0  0  0  0  0  0  0  0  0  0
    2.0226   -2.8871   -0.0001 H   0  0  0  0  0  0  0  0  0  0  0  0
   -1.9912   -3.1697   -0.0010 H   0  0  0  0  0  0  0  0  0  0  0  0
    1.6683   -0.0073    2.1588 H   0  0  0  0  0  0  0  0  0  0  0  0
    1.6657   -0.0073   -2.1577 H   0  0  0  0  0  0  0  0  0  0  0  0
   -1.7222   -0.0201    2.1618 H   0  0  0  0  0  0  0  0  0  0  0  0
   -1.7190   -0.0174   -2.1619 H   0  0  0  0  0  0  0  0  0  0  0  0
    3.2390    1.8948    2.1481 H   0  0  0  0  0  0  0  0  0  0  0  0
    3.2366    1.8946   -2.1488 H   0  0  0  0  0  0  0  0  0  0  0  0
    4.0275    2.8511   -0.0008 H   0  0  0  0  0  0  0  0  0  0  0  0
   -3.2339    1.9508    2.0588 H   0  0  0  0  0  0  0  0  0  0  0  0
   -3.2309    1.9534   -2.0585 H   0  0  0  0  0  0  0  0  0  0  0  0
  1  2  1  0  0  0  0
  1  4  1  0  0  0  0
  1 18  1  0  0  0  0
  2  8  2  0  0  0  0
  3 16  2  0  0  0  0
  3 17  1  0  0  0  0
  4  5  2  0  0  0  0
  4  6  1  0  0  0  0
  5  7  1  0  0  0  0
  5  8  1  0  0  0  0
  6  9  2  0  0  0  0
  6 10  1  0  0  0  0
  7 11  2  0  0  0  0
  7 12  1  0  0  0  0
  8 19  1  0  0  0  0
  9 13  1  0  0  0  0
  9 20  1  0  0  0  0
 10 14  2  0  0  0  0
 10 21  1  0  0  0  0
 11 16  1  0  0  0  0
 11 22  1  0  0  0  0
 12 17  2  0  0  0  0
 12 23  1  0  0  0  0
 13 15  2  0  0  0  0
 13 24  1  0  0  0  0
 14 15  1  0  0  0  0
 14 25  1  0  0  0  0
 15 26  1  0  0  0  0
 16 27  1  0  0  0  0
 17 28  1  0  0  0  0
M  END
> <PUBCHEM_COMPOUND_CID>
5207138

> <PUBCHEM_CONFORMER_RMSD>
0.6

> <PUBCHEM_CONFORMER_DIVERSEORDER>
1
4
5
2
3

> <PUBCHEM_MMFF94_PARTIAL_CHARGES>
28
1 0.3
10 -0.15
11 -0.15
12 -0.15
13 -0.15
14 -0.15
15 -0.15
16 0.16
17 0.16
18 0.27
19 0.15
2 -0.71
20 0.15
21 0.15
22 0.15
23 0.15
24 0.15
25 0.15
26 0.15
27 0.15
28 0.15
3 -0.62
4 -0.2
5 -0.05
6 0.05
7 0.05
8 0.14
9 -0.15

> <PUBCHEM_EFFECTIVE_ROTOR_COUNT>
2

> <PUBCHEM_PHARMACOPHORE_FEATURES>
6
1 1 donor
1 2 acceptor
1 3 acceptor
5 1 2 4 5 8 rings
6 3 7 11 12 16 17 rings
6 6 9 10 13 14 15 rings

> <PUBCHEM_HEAVY_ATOM_COUNT>
17

> <PUBCHEM_ATOM_DEF_STEREO_COUNT>
0

> <PUBCHEM_ATOM_UDEF_STEREO_COUNT>
0

> <PUBCHEM_BOND_DEF_STEREO_COUNT>
0

> <PUBCHEM_BOND_UDEF_STEREO_COUNT>
0

> <PUBCHEM_ISOTOPIC_ATOM_COUNT>
0

> <PUBCHEM_COMPONENT_COUNT>
1

> <PUBCHEM_CACTVS_TAUTO_COUNT>
3

> <PUBCHEM_CONFORMER_ID>
004F746200000001

> <PUBCHEM_MMFF94_ENERGY>
45.6083

> <PUBCHEM_FEATURE_SELFOVERLAP>
30.446

> <PUBCHEM_SHAPE_FINGERPRINT>
10165383 225 17977988723115478421
11578080 2 13169889370907782131
11640471 11 18337652183590652976
11725454 13 16699451378580095056
12173636 292 18340774831247724757
128993 33 18261970620813434980
13132413 78 17550391735244681578
13134695 92 17615961110966955431
13294875 104 18271801264467734354
13681431 1 17691130335601387663
13764800 53 18267876145005130993
14386348 128 18339099136571523609
14614273 12 18266739271399155831
16945 1 18122625230105896198
17134986 127 18409172082167191420
1741750 31 18339922726984483496
18186145 218 18272381857941261044
18981168 100 18410866459539406850
19765921 60 18131340895812982865
20510252 161 18051692440789643154
20600515 1 17261604383107326138
20671657 1 18268712701550038159
21041028 32 17331129290785885649
21524375 3 18409448089550463187
21639500 275 18194394486173027253
21731228 192 18333729121881458776
22112679 90 17326357895637162287
22802520 49 17701844239364596108
23419403 2 13350039746602409662
23557571 272 17692817407835509164
25 1 18059311876092293560
2748010 2 18336559251921450335
305870 269 18410288082300874290
31174 14 17903093139880332257
350125 39 18410020939393257603
3797600 57 16736402691023562780
474 4 18267015073056358401
49207404 50 18189354406650014209
5262128 65 16200148819800391489
549884 4 17632301124870938512
5845 1 12540689357639885399
6442390 28 18197240185474865243
6992083 37 17969203690198306748
7364860 26 18124873452174757759
81228 2 17906180898626956610
84936 182 18200302200493043849

> <PUBCHEM_SHAPE_MULTIPOLES>
334.91
5.33
3.11
1.3
1.15
2.71
0
-5.04
0
-0.85
0
0.08
-0.62
0

> <PUBCHEM_SHAPE_SELFOVERLAP>
745.512

> <PUBCHEM_SHAPE_VOLUME>
178.4

> <PUBCHEM_COORDINATE_TYPE>
2
5
10

$$$$
