49830359
  -OEChem-10052115183D

 52 56  0     0  0  0  0  0  0999 V2000
    4.2604   -1.8245    0.6180 S   0  0  0  0  0  0  0  0  0  0  0  0
  -10.6171   -0.0307   -0.8218 F   0  0  0  0  0  0  0  0  0  0  0  0
   -4.3436    0.2581    1.2205 O   0  0  0  0  0  0  0  0  0  0  0  0
    3.8793    2.2711   -1.1553 N   0  0  0  0  0  0  0  0  0  0  0  0
    8.6862    0.1262    0.9846 N   0  0  0  0  0  0  0  0  0  0  0  0
    1.5418    1.9471   -1.2910 N   0  0  0  0  0  0  0  0  0  0  0  0
    8.6947   -0.9451    0.1731 N   0  0  0  0  0  0  0  0  0  0  0  0
   -3.5710   -0.6423   -0.7998 N   0  0  0  0  0  0  0  0  0  0  0  0
   -5.8359   -0.3143   -0.4865 N   0  0  0  0  0  0  0  0  0  0  0  0
    2.9753    0.1843   -0.3806 C   0  0  0  0  0  0  0  0  0  0  0  0
    4.2671   -0.2362   -0.0516 C   0  0  0  0  0  0  0  0  0  0  0  0
    2.0055   -0.8262   -0.0681 C   0  0  0  0  0  0  0  0  0  0  0  0
    5.3775    0.5881   -0.2693 C   0  0  0  0  0  0  0  0  0  0  0  0
    0.5760   -0.7797   -0.2553 C   0  0  0  0  0  0  0  0  0  0  0  0
    2.8175    1.4629   -0.9386 C   0  0  0  0  0  0  0  0  0  0  0  0
    6.7070    0.1750    0.0620 C   0  0  0  0  0  0  0  0  0  0  0  0
    2.5670   -1.9572    0.4751 C   0  0  0  0  0  0  0  0  0  0  0  0
    5.1073    1.8268   -0.8239 C   0  0  0  0  0  0  0  0  0  0  0  0
   -0.2450   -0.2901    0.7607 C   0  0  0  0  0  0  0  0  0  0  0  0
    0.0145   -1.2235   -1.4525 C   0  0  0  0  0  0  0  0  0  0  0  0
    7.5188    0.8309    0.9550 C   0  0  0  0  0  0  0  0  0  0  0  0
    7.4830   -0.9101   -0.3877 C   0  0  0  0  0  0  0  0  0  0  0  0
   -2.1885   -0.6887   -0.6178 C   0  0  0  0  0  0  0  0  0  0  0  0
   -1.6272   -0.2447    0.5796 C   0  0  0  0  0  0  0  0  0  0  0  0
   -1.3677   -1.1782   -1.6338 C   0  0  0  0  0  0  0  0  0  0  0  0
    9.8507    0.4312    1.7809 C   0  0  0  0  0  0  0  0  0  0  0  0
   -4.5660   -0.1848    0.0983 C   0  0  0  0  0  0  0  0  0  0  0  0
   -7.0907    0.0260    0.0718 C   0  0  0  0  0  0  0  0  0  0  0  0
   -8.2582   -0.1741   -0.6647 C   0  0  0  0  0  0  0  0  0  0  0  0
   -7.1603    0.5625    1.3575 C   0  0  0  0  0  0  0  0  0  0  0  0
   -9.4954    0.1622   -0.1154 C   0  0  0  0  0  0  0  0  0  0  0  0
   -8.3976    0.8990    1.9066 C   0  0  0  0  0  0  0  0  0  0  0  0
   -9.5652    0.6989    1.1701 C   0  0  0  0  0  0  0  0  0  0  0  0
    2.0711   -2.8628    0.7990 H   0  0  0  0  0  0  0  0  0  0  0  0
    5.9045    2.5356   -1.0332 H   0  0  0  0  0  0  0  0  0  0  0  0
    0.1782    0.0609    1.6992 H   0  0  0  0  0  0  0  0  0  0  0  0
    0.6404   -1.6067   -2.2551 H   0  0  0  0  0  0  0  0  0  0  0  0
    7.3700    1.7167    1.5586 H   0  0  0  0  0  0  0  0  0  0  0  0
    7.2230   -1.6772   -1.1037 H   0  0  0  0  0  0  0  0  0  0  0  0
   -2.1931    0.1477    1.4122 H   0  0  0  0  0  0  0  0  0  0  0  0
   -1.7916   -1.5269   -2.5722 H   0  0  0  0  0  0  0  0  0  0  0  0
    1.4834    2.8755   -1.6891 H   0  0  0  0  0  0  0  0  0  0  0  0
    0.6956    1.4185   -1.1664 H   0  0  0  0  0  0  0  0  0  0  0  0
   -3.9050   -0.9828   -1.6980 H   0  0  0  0  0  0  0  0  0  0  0  0
   10.0474   -0.4171    2.4412 H   0  0  0  0  0  0  0  0  0  0  0  0
   10.6943    0.5980    1.1065 H   0  0  0  0  0  0  0  0  0  0  0  0
    9.6630    1.3300    2.3734 H   0  0  0  0  0  0  0  0  0  0  0  0
   -5.8681   -0.6991   -1.4272 H   0  0  0  0  0  0  0  0  0  0  0  0
   -8.2184   -0.5913   -1.6675 H   0  0  0  0  0  0  0  0  0  0  0  0
   -6.3041    0.7476    1.9901 H   0  0  0  0  0  0  0  0  0  0  0  0
   -8.4534    1.3169    2.9077 H   0  0  0  0  0  0  0  0  0  0  0  0
  -10.5286    0.9605    1.5975 H   0  0  0  0  0  0  0  0  0  0  0  0
  1 11  1  0  0  0  0
  1 17  1  0  0  0  0
  2 31  1  0  0  0  0
  3 27  2  0  0  0  0
  4 15  2  0  0  0  0
  4 18  1  0  0  0  0
  5  7  1  0  0  0  0
  5 21  1  0  0  0  0
  5 26  1  0  0  0  0
  6 15  1  0  0  0  0
  6 42  1  0  0  0  0
  6 43  1  0  0  0  0
  7 22  2  0  0  0  0
  8 23  1  0  0  0  0
  8 27  1  0  0  0  0
  8 44  1  0  0  0  0
  9 27  1  0  0  0  0
  9 28  1  0  0  0  0
  9 48  1  0  0  0  0
 10 11  2  0  0  0  0
 10 12  1  0  0  0  0
 10 15  1  0  0  0  0
 11 13  1  0  0  0  0
 12 14  1  0  0  0  0
 12 17  2  0  0  0  0
 13 16  1  0  0  0  0
 13 18  2  0  0  0  0
 14 19  2  0  0  0  0
 14 20  1  0  0  0  0
 16 21  2  0  0  0  0
 16 22  1  0  0  0  0
 17 34  1  0  0  0  0
 18 35  1  0  0  0  0
 19 24  1  0  0  0  0
 19 36  1  0  0  0  0
 20 25  2  0  0  0  0
 20 37  1  0  0  0  0
 21 38  1  0  0  0  0
 22 39  1  0  0  0  0
 23 24  2  0  0  0  0
 23 25  1  0  0  0  0
 24 40  1  0  0  0  0
 25 41  1  0  0  0  0
 26 45  1  0  0  0  0
 26 46  1  0  0  0  0
 26 47  1  0  0  0  0
 28 29  2  0  0  0  0
 28 30  1  0  0  0  0
 29 31  1  0  0  0  0
 29 49  1  0  0  0  0
 30 32  2  0  0  0  0
 30 50  1  0  0  0  0
 31 33  2  0  0  0  0
 32 33  1  0  0  0  0
 32 51  1  0  0  0  0
 33 52  1  0  0  0  0
M  END
> <PUBCHEM_COMPOUND_CID>
49830359

> <PUBCHEM_CONFORMER_RMSD>
0.8

> <PUBCHEM_CONFORMER_DIVERSEORDER>
1
44
10
20
15
24
48
21
31
26
36
18
38
42
37
7
30
5
43
12
6
22
47
11
19
8
45
41
46
17
25
29
16
40
4
3
23
34
32
39
33
13
9
28
14
27
2
35

> <PUBCHEM_MMFF94_PARTIAL_CHARGES>
48
1 -0.08
11 0.04
12 -0.05
13 0.05
14 0.05
15 0.41
16 -0.05
17 -0.11
18 0.16
19 -0.15
2 -0.19
20 -0.15
21 -0.3
22 0.14
23 0.12
24 -0.15
25 -0.15
26 0.26
27 0.69
28 0.12
29 -0.15
3 -0.57
30 -0.15
31 0.19
32 -0.15
33 -0.15
34 0.15
35 0.15
36 0.15
37 0.15
38 0.15
39 0.15
4 -0.62
40 0.15
41 0.15
42 0.4
43 0.4
44 0.37
48 0.37
49 0.15
5 0.31
50 0.15
51 0.15
52 0.15
6 -0.9
7 -0.71
8 -0.55
9 -0.55

> <PUBCHEM_EFFECTIVE_ROTOR_COUNT>
6

> <PUBCHEM_PHARMACOPHORE_FEATURES>
11
1 3 acceptor
1 6 donor
1 7 acceptor
1 8 donor
1 9 donor
3 4 6 15 cation
5 1 10 11 12 17 rings
5 5 7 16 21 22 rings
6 14 19 20 23 24 25 rings
6 28 29 30 31 32 33 rings
6 4 10 11 13 15 18 rings

> <PUBCHEM_HEAVY_ATOM_COUNT>
33

> <PUBCHEM_ATOM_DEF_STEREO_COUNT>
0

> <PUBCHEM_ATOM_UDEF_STEREO_COUNT>
0

> <PUBCHEM_BOND_DEF_STEREO_COUNT>
0

> <PUBCHEM_BOND_UDEF_STEREO_COUNT>
0

> <PUBCHEM_ISOTOPIC_ATOM_COUNT>
0

> <PUBCHEM_COMPONENT_COUNT>
1

> <PUBCHEM_CACTVS_TAUTO_COUNT>
6

> <PUBCHEM_CONFORMER_ID>
02F859D700000001

> <PUBCHEM_MMFF94_ENERGY>
99.587

> <PUBCHEM_FEATURE_SELFOVERLAP>
55.936

> <PUBCHEM_SHAPE_FINGERPRINT>
10162869 55 18335978744890724935
10533779 47 17749678397999215771
10904742 90 17988924470160942247
11135609 127 16271918372737269720
11409948 35 15864335905957538194
11443803 9 17704352169469069855
11456790 92 18040154019702489889
11607047 141 17489304128644598098
12013929 2 14923937943327174157
12089408 11 17561083588203304515
12236239 1 18201717392918442470
12539745 222 16081079342874533173
12664476 115 18186796981095268189
12741549 16 16877938339454028732
14150022 121 17095518453686224797
14251764 46 17131833166129163702
14294032 229 17560798789486513221
14344974 52 16056588898487352987
15131766 46 16809003517368625044
15183329 4 17704079495592063457
15247644 1 14273738452012598001
15301273 46 15863788404969753151
15419008 145 18259982635108395293
15419008 47 16732979830592057725
15510794 2 16660364775674335611
155225 1 17489588953098889121
15840311 113 18131633400930555560
16728433 281 13541365774486451099
1818759 1 12035449437214520817
19841028 212 11530747198406178432
20105231 36 14129053712702683360
20812841 46 18334572443769854408
21057603 43 17916865713458527246
21095086 128 13334731324283160216
21150785 3 14405187266151777515
21267235 1 13334735734602825486
21360443 126 13110956553071751604
21362267 20 14418139534560431113
21362267 313 17345761759048442842
21403212 168 18409448089619061118
21591340 7 18202843270975817783
21792934 111 18333726940882669108
22956985 138 12758800484296268696
24893992 56 17603870035194383371
249057 3 18260269667946204111
3092352 35 18273213102113095311
3178227 256 17894630366722785194
395649 100 17775278405519622783
397830 11 17386585690449642193
45377200 153 12973895826935948761
4874694 18 18186519904761466723
5028188 123 14549016582169996673
54039377 194 12179847204216068123
6081469 158 16877943832337079548
67123 10 17132113541931843739

> <PUBCHEM_SHAPE_MULTIPOLES>
639.94
35.28
1.56
1.41
42.87
0.06
-0.05
8.95
-11.5
-1.75
0.28
-0.11
0.36
-1.93

> <PUBCHEM_SHAPE_SELFOVERLAP>
1418.11

> <PUBCHEM_SHAPE_VOLUME>
348.2

> <PUBCHEM_COORDINATE_TYPE>
2
5
10

$$$$
