5281657
  -OEChem-10062122013D

 29 31  0     0  0  0  0  0  0999 V2000
    0.0082   -1.6393    0.0005 O   0  0  0  0  0  0  0  0  0  0  0  0
   -0.0002    2.4522    0.0002 O   0  0  0  0  0  0  0  0  0  0  0  0
    2.6072    2.4711   -0.0008 O   0  0  0  0  0  0  0  0  0  0  0  0
   -4.7303   -1.8034   -0.0006 O   0  0  0  0  0  0  0  0  0  0  0  0
    4.7484   -1.7632   -0.0003 O   0  0  0  0  0  0  0  0  0  0  0  0
   -1.2519    0.4525    0.0001 C   0  0  0  0  0  0  0  0  0  0  0  0
    1.2511    0.4629    0.0001 C   0  0  0  0  0  0  0  0  0  0  0  0
   -1.1735   -0.9398    0.0002 C   0  0  0  0  0  0  0  0  0  0  0  0
   -2.4936    1.0936   -0.0001 C   0  0  0  0  0  0  0  0  0  0  0  0
   -0.0036    1.2304    0.0003 C   0  0  0  0  0  0  0  0  0  0  0  0
    1.1841   -0.9301    0.0003 C   0  0  0  0  0  0  0  0  0  0  0  0
   -2.3460   -1.6981    0.0001 C   0  0  0  0  0  0  0  0  0  0  0  0
    2.4874    1.1143   -0.0001 C   0  0  0  0  0  0  0  0  0  0  0  0
   -3.6615    0.3307   -0.0004 C   0  0  0  0  0  0  0  0  0  0  0  0
    2.3630   -1.6785    0.0003 C   0  0  0  0  0  0  0  0  0  0  0  0
   -3.5882   -1.0624   -0.0003 C   0  0  0  0  0  0  0  0  0  0  0  0
   -2.6620    2.5786    0.0005 C   0  0  0  0  0  0  0  0  0  0  0  0
    3.6616    0.3611   -0.0001 C   0  0  0  0  0  0  0  0  0  0  0  0
    3.5998   -1.0326    0.0001 C   0  0  0  0  0  0  0  0  0  0  0  0
   -2.2938   -2.7842    0.0001 H   0  0  0  0  0  0  0  0  0  0  0  0
   -4.6360    0.8139   -0.0005 H   0  0  0  0  0  0  0  0  0  0  0  0
    2.3197   -2.7650    0.0004 H   0  0  0  0  0  0  0  0  0  0  0  0
   -3.7191    2.8695    0.0006 H   0  0  0  0  0  0  0  0  0  0  0  0
   -2.2226    3.0208    0.9005 H   0  0  0  0  0  0  0  0  0  0  0  0
   -2.2225    3.0216   -0.8990 H   0  0  0  0  0  0  0  0  0  0  0  0
    4.6293    0.8575   -0.0005 H   0  0  0  0  0  0  0  0  0  0  0  0
    3.5486    2.7147   -0.0009 H   0  0  0  0  0  0  0  0  0  0  0  0
   -5.4961   -1.2038   -0.0008 H   0  0  0  0  0  0  0  0  0  0  0  0
    5.5088   -1.1567   -0.0006 H   0  0  0  0  0  0  0  0  0  0  0  0
  1  8  1  0  0  0  0
  1 11  1  0  0  0  0
  2 10  2  0  0  0  0
  3 13  1  0  0  0  0
  3 27  1  0  0  0  0
  4 16  1  0  0  0  0
  4 28  1  0  0  0  0
  5 19  1  0  0  0  0
  5 29  1  0  0  0  0
  6  8  2  0  0  0  0
  6  9  1  0  0  0  0
  6 10  1  0  0  0  0
  7 10  1  0  0  0  0
  7 11  1  0  0  0  0
  7 13  2  0  0  0  0
  8 12  1  0  0  0  0
  9 14  2  0  0  0  0
  9 17  1  0  0  0  0
 11 15  2  0  0  0  0
 12 16  2  0  0  0  0
 12 20  1  0  0  0  0
 13 18  1  0  0  0  0
 14 16  1  0  0  0  0
 14 21  1  0  0  0  0
 15 19  1  0  0  0  0
 15 22  1  0  0  0  0
 17 23  1  0  0  0  0
 17 24  1  0  0  0  0
 17 25  1  0  0  0  0
 18 19  2  0  0  0  0
 18 26  1  0  0  0  0
M  END
> <PUBCHEM_COMPOUND_CID>
5281657

> <PUBCHEM_CONFORMER_RMSD>
0.4

> <PUBCHEM_CONFORMER_DIVERSEORDER>
1

> <PUBCHEM_MMFF94_PARTIAL_CHARGES>
26
1 -0.17
10 0.4
11 0.08
12 -0.15
13 0.08
14 -0.15
15 -0.15
16 0.08
17 0.14
18 -0.15
19 0.08
2 -0.57
20 0.15
21 0.15
22 0.15
26 0.15
27 0.45
28 0.45
29 0.45
3 -0.53
4 -0.53
5 -0.53
6 0.09
7 0.09
8 0.08
9 -0.14

> <PUBCHEM_EFFECTIVE_ROTOR_COUNT>
0

> <PUBCHEM_PHARMACOPHORE_FEATURES>
8
1 1 acceptor
1 2 acceptor
1 3 donor
1 4 donor
1 5 donor
6 1 6 7 8 10 11 rings
6 6 8 9 12 14 16 rings
6 7 11 13 15 18 19 rings

> <PUBCHEM_HEAVY_ATOM_COUNT>
19

> <PUBCHEM_ATOM_DEF_STEREO_COUNT>
0

> <PUBCHEM_ATOM_UDEF_STEREO_COUNT>
0

> <PUBCHEM_BOND_DEF_STEREO_COUNT>
0

> <PUBCHEM_BOND_UDEF_STEREO_COUNT>
0

> <PUBCHEM_ISOTOPIC_ATOM_COUNT>
0

> <PUBCHEM_COMPONENT_COUNT>
1

> <PUBCHEM_CACTVS_TAUTO_COUNT>
135

> <PUBCHEM_CONFORMER_ID>
0050977900000001

> <PUBCHEM_MMFF94_ENERGY>
60.5204

> <PUBCHEM_FEATURE_SELFOVERLAP>
40.654

> <PUBCHEM_SHAPE_FINGERPRINT>
10062212 137 18339072696842559235
10493431 412 17910401589302118673
10608611 8 18410853261105211561
10616163 171 18340206284814799239
10967382 1 18194401323302045860
1100329 8 16466147809593354872
11132069 177 18411411795874203960
11471102 20 18410007762733806174
11578080 2 17488719268981117953
11806522 49 18335983155078228703
12032990 46 18410576188475143623
12403259 226 18411131446174085153
12916754 54 18412265051594706547
13140716 1 18340487772512810265
13288520 33 18340208492754959094
138480 1 15528551304012701441
14790565 3 17475524876119191768
15196674 1 18410573985156751876
15442244 35 18410575054830500928
15536298 74 18342175591986740960
16945 1 18410575080394595813
17492 89 18410855447265294371
17802600 8 18410852161598611691
17804303 29 18411985736675283404
18186145 218 17748820821699776967
19591789 44 18410856559645525539
200 152 18131061654546261687
20510252 161 18343021094821984201
20645477 70 18410853308397461231
21267235 1 18410582781255536035
21501502 16 18410298007743675732
221490 88 18336552697996379538
2334 1 18410855490192965348
23366157 5 18041279958959986812
23402539 116 18341604884958756719
23463225 33 18410012143478992292
23557571 272 18200883885278244670
23559900 14 18412819175443341952
2748010 2 18411134740381963029
2871803 45 18334006216297677295
3286 77 18335417971989616678
335352 9 18194683665893994140
350125 39 18410859858269969257
4214541 1 18338797818850894341
5104073 3 18411981355761182576
7364860 26 18341331205859300056
7832392 63 18266739082473134456
8809292 202 18334018276164950531
9709674 26 18410016558579213714
9981440 41 17686619456669323080

> <PUBCHEM_SHAPE_MULTIPOLES>
361.66
7.77
2.64
0.59
0.79
1
0
-2.91
0
-0.46
0
-0.01
0
0

> <PUBCHEM_SHAPE_SELFOVERLAP>
818.895

> <PUBCHEM_SHAPE_VOLUME>
189.9

> <PUBCHEM_COORDINATE_TYPE>
2
5
10

$$$$
