15941392
  -OEChem-10062122003D

 50 53  0     0  0  0  0  0  0999 V2000
    5.7345    3.3041   -0.6855 F   0  0  0  0  0  0  0  0  0  0  0  0
    8.5155   -2.1637    0.7143 F   0  0  0  0  0  0  0  0  0  0  0  0
    6.6520   -2.4082    1.7967 F   0  0  0  0  0  0  0  0  0  0  0  0
    6.7440   -2.8798   -0.3240 F   0  0  0  0  0  0  0  0  0  0  0  0
    2.6496   -0.6172    0.0853 O   0  0  0  0  0  0  0  0  0  0  0  0
   -6.5613   -1.7910   -1.2629 N   0  0  0  0  0  0  0  0  0  0  0  0
   -4.8536    0.3830    0.0952 N   0  0  0  0  0  0  0  0  0  0  0  0
    1.4270    1.3159   -0.4224 N   0  0  0  0  0  0  0  0  0  0  0  0
   -8.3493   -0.9274   -0.0975 N   0  0  0  0  0  0  0  0  0  0  0  0
    3.7336    1.4111   -0.3394 N   0  0  0  0  0  0  0  0  0  0  0  0
   -8.2097    0.9200    1.4151 N   0  0  0  0  0  0  0  0  0  0  0  0
   -6.1458    1.9846    1.7829 N   0  0  0  0  0  0  0  0  0  0  0  0
   -4.2193   -1.9144   -0.6086 C   0  0  0  0  0  0  0  0  0  0  0  0
   -5.2142   -1.9326   -1.7531 C   0  0  0  0  0  0  0  0  0  0  0  0
   -3.9447   -0.4742   -0.2445 C   0  0  0  0  0  0  0  0  0  0  0  0
   -2.5332   -0.0037   -0.2907 C   0  0  0  0  0  0  0  0  0  0  0  0
   -7.0158   -0.8511   -0.3681 C   0  0  0  0  0  0  0  0  0  0  0  0
   -6.2221    0.1158    0.2528 C   0  0  0  0  0  0  0  0  0  0  0  0
   -1.4999   -0.8990   -0.0362 C   0  0  0  0  0  0  0  0  0  0  0  0
   -2.2597    1.3266   -0.5893 C   0  0  0  0  0  0  0  0  0  0  0  0
    0.1043    0.8745   -0.3797 C   0  0  0  0  0  0  0  0  0  0  0  0
   -0.1772   -0.4586   -0.0809 C   0  0  0  0  0  0  0  0  0  0  0  0
   -0.9370    1.7671   -0.6340 C   0  0  0  0  0  0  0  0  0  0  0  0
   -6.8960    0.9703    1.1277 C   0  0  0  0  0  0  0  0  0  0  0  0
    5.0989    1.0685   -0.1970 C   0  0  0  0  0  0  0  0  0  0  0  0
    2.6135    0.5765   -0.1955 C   0  0  0  0  0  0  0  0  0  0  0  0
    6.7830   -0.5764    0.2645 C   0  0  0  0  0  0  0  0  0  0  0  0
   -8.8706   -0.0455    0.7730 C   0  0  0  0  0  0  0  0  0  0  0  0
    5.4378   -0.2361    0.1221 C   0  0  0  0  0  0  0  0  0  0  0  0
    6.0669    2.0423   -0.3779 C   0  0  0  0  0  0  0  0  0  0  0  0
    7.7701    0.3928    0.0856 C   0  0  0  0  0  0  0  0  0  0  0  0
    7.4121    1.7020   -0.2356 C   0  0  0  0  0  0  0  0  0  0  0  0
    7.1666   -1.9763    0.6076 C   0  0  0  0  0  0  0  0  0  0  0  0
   -3.3192   -2.4195   -0.9654 H   0  0  0  0  0  0  0  0  0  0  0  0
   -4.5789   -2.4527    0.2754 H   0  0  0  0  0  0  0  0  0  0  0  0
   -5.0007   -1.1499   -2.4910 H   0  0  0  0  0  0  0  0  0  0  0  0
   -5.1439   -2.8928   -2.2766 H   0  0  0  0  0  0  0  0  0  0  0  0
   -7.2620   -2.4235   -1.6345 H   0  0  0  0  0  0  0  0  0  0  0  0
   -1.6801   -1.9330    0.2411 H   0  0  0  0  0  0  0  0  0  0  0  0
   -3.0536    2.0382   -0.7990 H   0  0  0  0  0  0  0  0  0  0  0  0
    0.5708   -1.2072    0.1374 H   0  0  0  0  0  0  0  0  0  0  0  0
   -0.7321    2.8084   -0.8697 H   0  0  0  0  0  0  0  0  0  0  0  0
    1.5522    2.3000   -0.6464 H   0  0  0  0  0  0  0  0  0  0  0  0
    4.7296   -1.0365    0.2747 H   0  0  0  0  0  0  0  0  0  0  0  0
    3.5524    2.3840   -0.5742 H   0  0  0  0  0  0  0  0  0  0  0  0
   -9.9319   -0.1281    0.9700 H   0  0  0  0  0  0  0  0  0  0  0  0
    8.8231    0.1474    0.1921 H   0  0  0  0  0  0  0  0  0  0  0  0
   -5.3177    2.3397    1.3206 H   0  0  0  0  0  0  0  0  0  0  0  0
   -6.6529    2.6004    2.4062 H   0  0  0  0  0  0  0  0  0  0  0  0
    8.1804    2.4569   -0.3747 H   0  0  0  0  0  0  0  0  0  0  0  0
  1 30  1  0  0  0  0
  2 33  1  0  0  0  0
  3 33  1  0  0  0  0
  4 33  1  0  0  0  0
  5 26  2  0  0  0  0
  6 14  1  0  0  0  0
  6 17  1  0  0  0  0
  6 38  1  0  0  0  0
  7 15  2  0  0  0  0
  7 18  1  0  0  0  0
  8 21  1  0  0  0  0
  8 26  1  0  0  0  0
  8 43  1  0  0  0  0
  9 17  2  0  0  0  0
  9 28  1  0  0  0  0
 10 25  1  0  0  0  0
 10 26  1  0  0  0  0
 10 45  1  0  0  0  0
 11 24  1  0  0  0  0
 11 28  2  0  0  0  0
 12 24  1  0  0  0  0
 12 48  1  0  0  0  0
 12 49  1  0  0  0  0
 13 14  1  0  0  0  0
 13 15  1  0  0  0  0
 13 34  1  0  0  0  0
 13 35  1  0  0  0  0
 14 36  1  0  0  0  0
 14 37  1  0  0  0  0
 15 16  1  0  0  0  0
 16 19  2  0  0  0  0
 16 20  1  0  0  0  0
 17 18  1  0  0  0  0
 18 24  2  0  0  0  0
 19 22  1  0  0  0  0
 19 39  1  0  0  0  0
 20 23  2  0  0  0  0
 20 40  1  0  0  0  0
 21 22  2  0  0  0  0
 21 23  1  0  0  0  0
 22 41  1  0  0  0  0
 23 42  1  0  0  0  0
 25 29  1  0  0  0  0
 25 30  2  0  0  0  0
 27 29  2  0  0  0  0
 27 31  1  0  0  0  0
 27 33  1  0  0  0  0
 28 46  1  0  0  0  0
 29 44  1  0  0  0  0
 30 32  1  0  0  0  0
 31 32  2  0  0  0  0
 31 47  1  0  0  0  0
 32 50  1  0  0  0  0
M  END
> <PUBCHEM_COMPOUND_CID>
15941392

> <PUBCHEM_CONFORMER_RMSD>
0.8

> <PUBCHEM_CONFORMER_DIVERSEORDER>
1
44
50
31
21
39
24
14
47
2
40
29
36
48
13
19
51
27
42
4
30
23
33
38
18
16
37
11
26
34
10
25
5
46
22
32
3
35
20
28
49
43
15
45
41
6
8
17
9
7
12

> <PUBCHEM_MMFF94_PARTIAL_CHARGES>
46
1 -0.19
10 -0.55
11 -0.62
12 -0.9
13 0.06
14 0.37
15 0.3
16 0.09
17 0.41
18 0.18
19 -0.15
2 -0.34
20 -0.15
21 0.12
22 -0.15
23 -0.15
24 0.41
25 0.12
26 0.69
27 -0.14
28 0.47
29 -0.15
3 -0.34
30 0.19
31 -0.15
32 -0.15
33 1.16
38 0.4
39 0.15
4 -0.34
40 0.15
41 0.15
42 0.15
43 0.37
44 0.15
45 0.37
46 0.15
47 0.15
48 0.4
49 0.4
5 -0.57
50 0.15
6 -0.87
7 -0.63
8 -0.55
9 -0.62

> <PUBCHEM_EFFECTIVE_ROTOR_COUNT>
6.6

> <PUBCHEM_PHARMACOPHORE_FEATURES>
13
1 10 donor
1 12 cation
1 12 donor
1 5 acceptor
1 6 donor
1 7 acceptor
1 8 donor
3 6 9 17 cation
3 9 11 28 cation
6 16 19 20 21 22 23 rings
6 25 27 29 30 31 32 rings
6 9 11 17 18 24 28 rings
7 6 7 13 14 15 17 18 rings

> <PUBCHEM_HEAVY_ATOM_COUNT>
33

> <PUBCHEM_ATOM_DEF_STEREO_COUNT>
0

> <PUBCHEM_ATOM_UDEF_STEREO_COUNT>
0

> <PUBCHEM_BOND_DEF_STEREO_COUNT>
0

> <PUBCHEM_BOND_UDEF_STEREO_COUNT>
0

> <PUBCHEM_ISOTOPIC_ATOM_COUNT>
0

> <PUBCHEM_COMPONENT_COUNT>
1

> <PUBCHEM_CACTVS_TAUTO_COUNT>
108

> <PUBCHEM_CONFORMER_ID>
00F33F1000000001

> <PUBCHEM_MMFF94_ENERGY>
117.3684

> <PUBCHEM_FEATURE_SELFOVERLAP>
66.162

> <PUBCHEM_SHAPE_FINGERPRINT>
10299344 5 18413388752103766652
11135926 11 18340197523635676831
11315181 36 18342740763192680285
11524674 6 16486974041745704919
11719270 70 17561368379090129214
12089408 11 18343584062593356909
12144603 126 18341897441726590244
12522641 24 18343298185354575560
12655364 131 18269004102650533291
12664476 115 10952051144376096690
13533116 47 18335136510599589972
13617811 41 15285358401998817486
13885169 127 17917715708132229053
14118638 360 15502641681707544369
14251764 18 18341896311796594197
14444916 359 17095245809114892651
14849402 71 18268716180901790249
15119646 104 18411135831747034302
15131766 46 16412078715887810808
15183329 4 18261667151234958702
15198563 99 16660911206671782805
15247644 1 16298390193502841283
15276724 80 18334855060449139924
15328684 2 18130228138205276290
15419008 47 15719664450718311597
15461852 350 16487253305779556685
1577012 14 18343301500409756356
19301679 30 17845942802123170300
20105231 36 16660365883274588987
2026 5 17969492707607965242
20554085 129 15985102994661638534
20982279 24 17604728663217873602
21130935 74 18340485668242696058
21267235 1 18259985946970395684
21772524 286 17916034451458836329
23081809 10 18343020033875391164
23522609 53 18268735924418069932
23569943 247 18115297874197110147
23576562 1 11098444540980453867
249057 3 15213305261219216599
2835820 82 18189049807775876754
4073 2 18042407018444501290
439807 62 18410572895021217752
44389302 135 18201431438724248366
44802255 64 13542188235418268033
6691757 9 17489594494150506991
9831232 110 18128824049737166726
99344 41 18202283597661002551

> <PUBCHEM_SHAPE_MULTIPOLES>
609.29
31.9
2.54
1.1
3.93
0.38
-0.18
5.98
-7.44
4.17
0.08
-1.29
0.16
-4.24

> <PUBCHEM_SHAPE_SELFOVERLAP>
1339.547

> <PUBCHEM_SHAPE_VOLUME>
325.7

> <PUBCHEM_COORDINATE_TYPE>
2
5
10

$$$$
