221427
  -OEChem-10052115163D

 27 28  0     0  0  0  0  0  0999 V2000
    0.0131    1.2739   -0.0002 O   0  0  0  0  0  0  0  0  0  0  0  0
   -1.1364   -0.7676    0.0001 N   0  0  0  0  0  0  0  0  0  0  0  0
    1.1734   -0.7566    0.0005 N   0  0  0  0  0  0  0  0  0  0  0  0
    2.7787    0.9801    0.0004 N   0  0  0  0  0  0  0  0  0  0  0  0
   -2.4758   -0.3769   -0.0003 C   0  0  0  0  0  0  0  0  0  0  0  0
   -3.4836   -1.3413   -0.0003 C   0  0  0  0  0  0  0  0  0  0  0  0
   -2.8073    0.9782    0.0000 C   0  0  0  0  0  0  0  0  0  0  0  0
    2.5257   -0.3406    0.0007 C   0  0  0  0  0  0  0  0  0  0  0  0
    0.0220    0.0471    0.0001 C   0  0  0  0  0  0  0  0  0  0  0  0
   -4.8228   -0.9510   -0.0002 C   0  0  0  0  0  0  0  0  0  0  0  0
   -4.1465    1.3684    0.0002 C   0  0  0  0  0  0  0  0  0  0  0  0
   -5.1542    0.4038    0.0000 C   0  0  0  0  0  0  0  0  0  0  0  0
    3.4833   -1.3325    0.0001 C   0  0  0  0  0  0  0  0  0  0  0  0
    4.8154   -0.9343   -0.0004 C   0  0  0  0  0  0  0  0  0  0  0  0
    5.1305    0.4201   -0.0006 C   0  0  0  0  0  0  0  0  0  0  0  0
    4.0848    1.3291   -0.0003 C   0  0  0  0  0  0  0  0  0  0  0  0
   -0.9746   -1.7716    0.0002 H   0  0  0  0  0  0  0  0  0  0  0  0
   -3.2400   -2.4008   -0.0003 H   0  0  0  0  0  0  0  0  0  0  0  0
   -2.0878    1.7843    0.0002 H   0  0  0  0  0  0  0  0  0  0  0  0
    1.0225   -1.7623    0.0005 H   0  0  0  0  0  0  0  0  0  0  0  0
   -5.6075   -1.7018   -0.0002 H   0  0  0  0  0  0  0  0  0  0  0  0
   -4.4063    2.4232    0.0004 H   0  0  0  0  0  0  0  0  0  0  0  0
   -6.1969    0.7078    0.0002 H   0  0  0  0  0  0  0  0  0  0  0  0
    3.2300   -2.3873    0.0001 H   0  0  0  0  0  0  0  0  0  0  0  0
    5.6068   -1.6778   -0.0007 H   0  0  0  0  0  0  0  0  0  0  0  0
    6.1618    0.7535   -0.0011 H   0  0  0  0  0  0  0  0  0  0  0  0
    4.2771    2.3970   -0.0005 H   0  0  0  0  0  0  0  0  0  0  0  0
  1  9  2  0  0  0  0
  2  5  1  0  0  0  0
  2  9  1  0  0  0  0
  2 17  1  0  0  0  0
  3  8  1  0  0  0  0
  3  9  1  0  0  0  0
  3 20  1  0  0  0  0
  4  8  1  0  0  0  0
  4 16  2  0  0  0  0
  5  6  2  0  0  0  0
  5  7  1  0  0  0  0
  6 10  1  0  0  0  0
  6 18  1  0  0  0  0
  7 11  2  0  0  0  0
  7 19  1  0  0  0  0
  8 13  2  0  0  0  0
 10 12  2  0  0  0  0
 10 21  1  0  0  0  0
 11 12  1  0  0  0  0
 11 22  1  0  0  0  0
 12 23  1  0  0  0  0
 13 14  1  0  0  0  0
 13 24  1  0  0  0  0
 14 15  2  0  0  0  0
 14 25  1  0  0  0  0
 15 16  1  0  0  0  0
 15 26  1  0  0  0  0
 16 27  1  0  0  0  0
M  END
> <PUBCHEM_COMPOUND_CID>
221427

> <PUBCHEM_CONFORMER_RMSD>
0.6

> <PUBCHEM_CONFORMER_DIVERSEORDER>
1
5
6
3
8
7
2
4

> <PUBCHEM_MMFF94_PARTIAL_CHARGES>
27
1 -0.57
10 -0.15
11 -0.15
12 -0.15
13 -0.15
14 -0.15
15 -0.15
16 0.16
17 0.37
18 0.15
19 0.15
2 -0.55
20 0.37
21 0.15
22 0.15
23 0.15
24 0.15
25 0.15
26 0.15
27 0.15
3 -0.55
4 -0.62
5 0.12
6 -0.15
7 -0.15
8 0.43
9 0.69

> <PUBCHEM_EFFECTIVE_ROTOR_COUNT>
4

> <PUBCHEM_PHARMACOPHORE_FEATURES>
6
1 1 acceptor
1 2 donor
1 3 donor
1 4 acceptor
6 4 8 13 14 15 16 rings
6 5 6 7 10 11 12 rings

> <PUBCHEM_HEAVY_ATOM_COUNT>
16

> <PUBCHEM_ATOM_DEF_STEREO_COUNT>
0

> <PUBCHEM_ATOM_UDEF_STEREO_COUNT>
0

> <PUBCHEM_BOND_DEF_STEREO_COUNT>
0

> <PUBCHEM_BOND_UDEF_STEREO_COUNT>
0

> <PUBCHEM_ISOTOPIC_ATOM_COUNT>
0

> <PUBCHEM_COMPONENT_COUNT>
1

> <PUBCHEM_CACTVS_TAUTO_COUNT>
5

> <PUBCHEM_CONFORMER_ID>
000360F300000001

> <PUBCHEM_MMFF94_ENERGY>
46.8507

> <PUBCHEM_FEATURE_SELFOVERLAP>
30.499

> <PUBCHEM_SHAPE_FINGERPRINT>
10014705 185 18260544498946007701
10680689 15 17385724682107461101
11287383 113 18409450305853593922
12107183 9 17689997834339938987
13167823 11 18410571786133918571
13533116 47 14620524376510583950
14123238 8 18260267455747571511
1420 363 18113625598989596051
14341114 176 18410580586532061345
14528608 73 18410859901662559292
15196674 1 18410575084663130884
15242433 33 18411700993233982062
17834072 33 18341611542131412254
17844677 252 18411708681172804801
18186145 218 17749102292481636650
200 152 18131068229523928843
20645477 70 18342460292690184630
21267235 1 18410582781255282691
22485316 2 18410572885640063715
23402539 116 18342733023065410303
23402655 69 18341895203831935094
23557571 272 17967532333154394524
23559900 14 18413385449516710752
239999 70 18272093773558729222
300161 21 18409441488180136107
3004659 81 18335140856927158414
34797466 226 17489315238521758412
351380 180 18410292514469714289
3545911 37 18410857659151423852
4073 2 18040722506279959290
42 15 18407761430176014414
4214541 1 18410856542766057381
42788 4 18410856559639900006
5104073 3 18410573985156746328
5374978 207 18411131429605704288
542803 24 18409730664027927270
7495541 125 17632009861679363739
77779 3 18410575084663104902
9709674 26 18410863152515536830
9971528 1 17821730537729149812

> <PUBCHEM_SHAPE_MULTIPOLES>
308.46
12.99
1.48
0.59
0.96
0.09
0
0.1
0
-0.07
0
-0.02
-0.01
0

> <PUBCHEM_SHAPE_SELFOVERLAP>
658.052

> <PUBCHEM_SHAPE_VOLUME>
168.7

> <PUBCHEM_COORDINATE_TYPE>
2
5
10

$$$$
