53469448
  -OEChem-10052120443D

 53 57  0     0  0  0  0  0  0999 V2000
   -8.4506   -1.5828   -1.2171 F   0  0  0  0  0  0  0  0  0  0  0  0
   -6.6788   -2.7021   -0.6380 F   0  0  0  0  0  0  0  0  0  0  0  0
   -7.9060   -1.7580    0.8806 F   0  0  0  0  0  0  0  0  0  0  0  0
   -2.3548    0.1931   -0.7600 O   0  0  0  0  0  0  0  0  0  0  0  0
   -1.0776    0.7762    1.1042 N   0  0  0  0  0  0  0  0  0  0  0  0
    6.0699   -1.9729    0.1840 N   0  0  0  0  0  0  0  0  0  0  0  0
    7.6728   -0.4757   -0.8177 N   0  0  0  0  0  0  0  0  0  0  0  0
    6.7088    1.6729   -1.4357 N   0  0  0  0  0  0  0  0  0  0  0  0
    4.4153    2.2085   -1.0752 N   0  0  0  0  0  0  0  0  0  0  0  0
    0.5172    1.2627    2.8749 C   0  0  0  0  0  0  0  0  0  0  0  0
    1.1400    0.6044    1.6876 C   0  0  0  0  0  0  0  0  0  0  0  0
   -0.9545    1.3565    2.4581 C   0  0  0  0  0  0  0  0  0  0  0  0
    0.1986    0.3406    0.6906 C   0  0  0  0  0  0  0  0  0  0  0  0
    2.4758    0.2699    1.5245 C   0  0  0  0  0  0  0  0  0  0  0  0
    2.8667   -0.3417    0.3338 C   0  0  0  0  0  0  0  0  0  0  0  0
    0.5794   -0.2669   -0.4971 C   0  0  0  0  0  0  0  0  0  0  0  0
    4.2429   -0.7020    0.1334 C   0  0  0  0  0  0  0  0  0  0  0  0
   -2.2500    0.6760    0.3676 C   0  0  0  0  0  0  0  0  0  0  0  0
    1.9248   -0.6076   -0.6695 C   0  0  0  0  0  0  0  0  0  0  0  0
    5.3151    0.0354   -0.4307 C   0  0  0  0  0  0  0  0  0  0  0  0
   -3.4789    1.2233    1.0546 C   0  0  0  0  0  0  0  0  0  0  0  0
    4.7368   -1.9350    0.5031 C   0  0  0  0  0  0  0  0  0  0  0  0
    6.4375   -0.7825   -0.3849 C   0  0  0  0  0  0  0  0  0  0  0  0
   -4.6895    1.0298    0.1974 C   0  0  0  0  0  0  0  0  0  0  0  0
    5.4886    1.3041   -0.9820 C   0  0  0  0  0  0  0  0  0  0  0  0
    6.9423   -3.1020    0.4170 C   0  0  0  0  0  0  0  0  0  0  0  0
   -5.4460   -0.1366    0.3115 C   0  0  0  0  0  0  0  0  0  0  0  0
   -5.0618    2.0160   -0.7164 C   0  0  0  0  0  0  0  0  0  0  0  0
   -6.5748   -0.3169   -0.4878 C   0  0  0  0  0  0  0  0  0  0  0  0
    7.7116    0.7725   -1.3269 C   0  0  0  0  0  0  0  0  0  0  0  0
   -6.1904    1.8356   -1.5159 C   0  0  0  0  0  0  0  0  0  0  0  0
   -6.9471    0.6693   -1.4016 C   0  0  0  0  0  0  0  0  0  0  0  0
   -7.3836   -1.5642   -0.3663 C   0  0  0  0  0  0  0  0  0  0  0  0
    0.9423    2.2565    3.0461 H   0  0  0  0  0  0  0  0  0  0  0  0
    0.6341    0.6525    3.7757 H   0  0  0  0  0  0  0  0  0  0  0  0
   -1.5988    0.7985    3.1463 H   0  0  0  0  0  0  0  0  0  0  0  0
   -1.2984    2.3964    2.4358 H   0  0  0  0  0  0  0  0  0  0  0  0
    3.1923    0.4849    2.3122 H   0  0  0  0  0  0  0  0  0  0  0  0
   -0.1209   -0.4870   -1.2933 H   0  0  0  0  0  0  0  0  0  0  0  0
    2.2283   -1.0837   -1.5999 H   0  0  0  0  0  0  0  0  0  0  0  0
   -3.3364    2.2897    1.2642 H   0  0  0  0  0  0  0  0  0  0  0  0
   -3.6220    0.7166    2.0158 H   0  0  0  0  0  0  0  0  0  0  0  0
    4.2524   -2.7860    0.9652 H   0  0  0  0  0  0  0  0  0  0  0  0
    7.3414   -3.4327   -0.5452 H   0  0  0  0  0  0  0  0  0  0  0  0
    7.7497   -2.7817    1.0804 H   0  0  0  0  0  0  0  0  0  0  0  0
    6.3776   -3.9130    0.8836 H   0  0  0  0  0  0  0  0  0  0  0  0
   -5.1573   -0.9082    1.0214 H   0  0  0  0  0  0  0  0  0  0  0  0
   -4.4797    2.9283   -0.8163 H   0  0  0  0  0  0  0  0  0  0  0  0
    8.6766    1.0988   -1.6996 H   0  0  0  0  0  0  0  0  0  0  0  0
   -6.4798    2.6032   -2.2278 H   0  0  0  0  0  0  0  0  0  0  0  0
    3.4922    1.9664   -0.7466 H   0  0  0  0  0  0  0  0  0  0  0  0
    4.5816    3.1194   -1.4815 H   0  0  0  0  0  0  0  0  0  0  0  0
   -7.8225    0.5484   -2.0336 H   0  0  0  0  0  0  0  0  0  0  0  0
  1 33  1  0  0  0  0
  2 33  1  0  0  0  0
  3 33  1  0  0  0  0
  4 18  2  0  0  0  0
  5 12  1  0  0  0  0
  5 13  1  0  0  0  0
  5 18  1  0  0  0  0
  6 22  1  0  0  0  0
  6 23  1  0  0  0  0
  6 26  1  0  0  0  0
  7 23  2  0  0  0  0
  7 30  1  0  0  0  0
  8 25  1  0  0  0  0
  8 30  2  0  0  0  0
  9 25  1  0  0  0  0
  9 51  1  0  0  0  0
  9 52  1  0  0  0  0
 10 11  1  0  0  0  0
 10 12  1  0  0  0  0
 10 34  1  0  0  0  0
 10 35  1  0  0  0  0
 11 13  2  0  0  0  0
 11 14  1  0  0  0  0
 12 36  1  0  0  0  0
 12 37  1  0  0  0  0
 13 16  1  0  0  0  0
 14 15  2  0  0  0  0
 14 38  1  0  0  0  0
 15 17  1  0  0  0  0
 15 19  1  0  0  0  0
 16 19  2  0  0  0  0
 16 39  1  0  0  0  0
 17 20  1  0  0  0  0
 17 22  2  0  0  0  0
 18 21  1  0  0  0  0
 19 40  1  0  0  0  0
 20 23  1  0  0  0  0
 20 25  2  0  0  0  0
 21 24  1  0  0  0  0
 21 41  1  0  0  0  0
 21 42  1  0  0  0  0
 22 43  1  0  0  0  0
 24 27  2  0  0  0  0
 24 28  1  0  0  0  0
 26 44  1  0  0  0  0
 26 45  1  0  0  0  0
 26 46  1  0  0  0  0
 27 29  1  0  0  0  0
 27 47  1  0  0  0  0
 28 31  2  0  0  0  0
 28 48  1  0  0  0  0
 29 32  2  0  0  0  0
 29 33  1  0  0  0  0
 30 49  1  0  0  0  0
 31 32  1  0  0  0  0
 31 50  1  0  0  0  0
 32 53  1  0  0  0  0
M  END
> <PUBCHEM_COMPOUND_CID>
53469448

> <PUBCHEM_CONFORMER_RMSD>
0.8

> <PUBCHEM_CONFORMER_DIVERSEORDER>
2
147
123
70
39
183
148
191
198
56
158
165
42
193
82
87
69
171
160
37
111
145
47
159
110
53
64
67
9
25
96
175
156
186
155
177
8
106
92
180
141
162
89
19
219
103
140
34
109
218
205
50
130
52
80
136
132
90
144
146
120
36
184
104
210
188
203
128
31
98
101
149
139
12
214
122
189
194
204
66
43
217
59
124
220
174
143
170
65
142
48
211
38
99
209
79
44
73
206
166
51
163
227
76
3
173
116
151
58
20
105
215
23
1
153
131
150
121
5
196
55
93
85
13
169
94
88
172
125
28
187
46
195
176
24
157
74
197
72
77
115
199
84
118
27
223
201
108
62
57
68
179
78
212
164
216
119
152
14
15
112
21
168
190
161
40
222
60
6
97
226
30
134
61
113
102
200
127
182
137
107
83
100
18
208
33
154
45
192
133
221
71
86
35
10
11
181
29
178
138
16
167
17
126
129
22
207
95
41
32
91
213
75
225
135
224
185
81
49
4
117
63
114
7
202
54
26

> <PUBCHEM_MMFF94_PARTIAL_CHARGES>
43
1 -0.34
10 0.14
11 -0.14
12 0.3
13 0.12
14 -0.15
15 0.05
16 -0.15
17 -0.05
18 0.57
19 -0.15
2 -0.34
21 0.2
22 -0.3
23 0.11
24 -0.14
25 0.41
26 0.26
27 -0.15
28 -0.15
29 -0.14
3 -0.34
30 0.47
31 -0.15
32 -0.15
33 1.16
38 0.15
39 0.15
4 -0.57
40 0.15
43 0.15
47 0.15
48 0.15
49 0.15
5 -0.48
50 0.15
51 0.4
52 0.4
53 0.15
6 0.05
7 -0.57
8 -0.62
9 -0.9

> <PUBCHEM_EFFECTIVE_ROTOR_COUNT>
5.6

> <PUBCHEM_PHARMACOPHORE_FEATURES>
10
1 4 acceptor
1 9 cation
1 9 donor
3 6 7 23 cation
3 7 8 30 cation
5 5 10 11 12 13 rings
5 6 17 20 22 23 rings
6 11 13 14 15 16 19 rings
6 24 27 28 29 31 32 rings
6 7 8 20 23 25 30 rings

> <PUBCHEM_HEAVY_ATOM_COUNT>
33

> <PUBCHEM_ATOM_DEF_STEREO_COUNT>
0

> <PUBCHEM_ATOM_UDEF_STEREO_COUNT>
0

> <PUBCHEM_BOND_DEF_STEREO_COUNT>
0

> <PUBCHEM_BOND_UDEF_STEREO_COUNT>
0

> <PUBCHEM_ISOTOPIC_ATOM_COUNT>
0

> <PUBCHEM_COMPONENT_COUNT>
1

> <PUBCHEM_CACTVS_TAUTO_COUNT>
4

> <PUBCHEM_CONFORMER_ID>
032FE10800000002

> <PUBCHEM_MMFF94_ENERGY>
89.5114

> <PUBCHEM_FEATURE_SELFOVERLAP>
51.111

> <PUBCHEM_SHAPE_FINGERPRINT>
10076449 9 17704076217587621489
10162869 55 18333448747424087206
10299344 5 18341897385459225383
11331351 85 14333415540684051089
11386260 185 17676497129680772492
11646440 116 15913325792809603067
11672396 43 17630613315363769614
11963148 33 17274815818590075870
12082328 90 18261108557174798655
12166972 35 18343582953669661081
12236239 1 18200319814886745048
13627175 4 17346309432398934527
13673619 4 17418089923578882681
13685833 64 17060616702744431321
13690498 29 18409161122328725109
13782708 43 18059563711947886339
14040221 8 18270677555522668717
14294032 229 17128761006473047704
14347424 109 9799693684485338884
14767858 380 17988927747521181804
14849402 71 13110092357721724827
15064986 266 18113621176038288553
15131766 46 9221501214328066842
15142383 8 10809341157360383078
15183329 4 18187082819357532544
15352257 5 18272087210563948423
1577012 14 18200323121616391760
15979999 66 18409727369915859196
18681886 176 18113894988091989217
19841028 212 18123464974329713546
20105231 36 16128381479836365812
20554085 129 14923941275916497064
21033648 144 14056996093364359145
21033648 29 16950573220520997032
21150785 3 18259704510337076261
21267235 1 16988844981861756353
21781051 124 17561089111705516054
21792961 116 18131637772595333326
21792965 106 13335553724547354047
22149856 69 16558483988777730202
22956985 138 17056134922284934622
23081809 10 18201445718608734624
23516275 100 16878510162784160164
23522609 53 17986140506730255841
23559900 14 18340758343532985489
23569917 315 17916876703889565470
23576562 1 17096094717911461007
24771293 8 16226051097900714364
249057 25 18268720424624338976
25269216 80 17968090946562229859
2747138 104 16486972890652212482
3178227 256 17203608202985365827
3383291 50 16559026104182396287
3525247 94 18342455904009158790
3633792 109 18188213087884152418
4098825 35 18260264127258784655
4107672 100 18335696110325618005
439807 62 18342457050142609915
44880568 143 17968097456509331149
484989 97 18129663131279452347
504843 32 13479145600928576313
5265222 85 18336826485113804399
5470011 282 18407760339507464037
5758199 1 15430319101162175345
636775 8 17846504741830914422
8863177 126 17917139624369426139
9961470 85 15431464916399724292
999808 66 17775567546622111247

> <PUBCHEM_SHAPE_MULTIPOLES>
626.53
26.52
2.3
1.8
13.97
1.17
0.99
10.54
-13.21
-0.04
-0.2
0.12
-1.03
-1.44

> <PUBCHEM_SHAPE_SELFOVERLAP>
1403.834

> <PUBCHEM_SHAPE_VOLUME>
336.3

> <PUBCHEM_COORDINATE_TYPE>
2
5
10

$$$$
