49830998
  -OEChem-10052115183D

 43 46  0     0  0  0  0  0  0999 V2000
    5.5231    1.9091   -0.0001 O   0  0  0  0  0  0  0  0  0  0  0  0
    7.2693   -0.2540    0.0001 O   0  0  0  0  0  0  0  0  0  0  0  0
   -3.3811   -1.2204    0.0003 N   0  0  0  0  0  0  0  0  0  0  0  0
   -3.5574    2.2969    0.0001 N   0  0  0  0  0  0  0  0  0  0  0  0
   -0.4224   -0.5320    0.0003 N   0  0  0  0  0  0  0  0  0  0  0  0
   -1.1905    1.7347    0.0003 N   0  0  0  0  0  0  0  0  0  0  0  0
    0.8640   -0.1347    0.0000 N   0  0  0  0  0  0  0  0  0  0  0  0
   -5.0490    0.2706   -0.0001 C   0  0  0  0  0  0  0  0  0  0  0  0
   -4.7536   -1.0952    0.0000 C   0  0  0  0  0  0  0  0  0  0  0  0
   -2.7890    0.0148    0.0001 C   0  0  0  0  0  0  0  0  0  0  0  0
   -3.8057    0.9630    0.0001 C   0  0  0  0  0  0  0  0  0  0  0  0
   -1.4634    0.4122    0.0001 C   0  0  0  0  0  0  0  0  0  0  0  0
   -6.4002    0.6719   -0.0001 C   0  0  0  0  0  0  0  0  0  0  0  0
   -5.7470   -2.0810    0.0000 C   0  0  0  0  0  0  0  0  0  0  0  0
   -7.4033   -0.3038   -0.0004 C   0  0  0  0  0  0  0  0  0  0  0  0
   -7.0794   -1.6589   -0.0003 C   0  0  0  0  0  0  0  0  0  0  0  0
   -2.2405    2.5853   -0.0001 C   0  0  0  0  0  0  0  0  0  0  0  0
    3.1655   -0.8845    0.0002 C   0  0  0  0  0  0  0  0  0  0  0  0
    3.6672    0.4170   -0.0001 C   0  0  0  0  0  0  0  0  0  0  0  0
    5.0453    0.6333   -0.0003 C   0  0  0  0  0  0  0  0  0  0  0  0
    1.7099   -1.1131    0.0002 C   0  0  0  0  0  0  0  0  0  0  0  0
    5.9216   -0.4520   -0.0004 C   0  0  0  0  0  0  0  0  0  0  0  0
    4.0417   -1.9698    0.0002 C   0  0  0  0  0  0  0  0  0  0  0  0
    5.4197   -1.7535   -0.0002 C   0  0  0  0  0  0  0  0  0  0  0  0
    4.5603    2.9614    0.0001 C   0  0  0  0  0  0  0  0  0  0  0  0
    8.0950   -1.4172    0.0000 C   0  0  0  0  0  0  0  0  0  0  0  0
   -2.8857   -2.1014    0.0005 H   0  0  0  0  0  0  0  0  0  0  0  0
   -6.6675    1.7248   -0.0002 H   0  0  0  0  0  0  0  0  0  0  0  0
   -5.4964   -3.1366    0.0002 H   0  0  0  0  0  0  0  0  0  0  0  0
   -8.4465    0.0006   -0.0005 H   0  0  0  0  0  0  0  0  0  0  0  0
   -7.8743   -2.4003   -0.0004 H   0  0  0  0  0  0  0  0  0  0  0  0
   -0.6652   -1.5161    0.0003 H   0  0  0  0  0  0  0  0  0  0  0  0
   -1.9894    3.6404   -0.0003 H   0  0  0  0  0  0  0  0  0  0  0  0
    2.9515    1.2310   -0.0001 H   0  0  0  0  0  0  0  0  0  0  0  0
    1.3793   -2.1688    0.0003 H   0  0  0  0  0  0  0  0  0  0  0  0
    3.6640   -2.9891    0.0003 H   0  0  0  0  0  0  0  0  0  0  0  0
    6.0396   -2.6434   -0.0002 H   0  0  0  0  0  0  0  0  0  0  0  0
    3.9519    2.9532   -0.9108 H   0  0  0  0  0  0  0  0  0  0  0  0
    3.9519    2.9530    0.9109 H   0  0  0  0  0  0  0  0  0  0  0  0
    5.1161    3.9051    0.0001 H   0  0  0  0  0  0  0  0  0  0  0  0
    7.9563   -2.0107    0.9101 H   0  0  0  0  0  0  0  0  0  0  0  0
    7.9564   -2.0105   -0.9103 H   0  0  0  0  0  0  0  0  0  0  0  0
    9.1348   -1.0741    0.0002 H   0  0  0  0  0  0  0  0  0  0  0  0
  1 20  1  0  0  0  0
  1 25  1  0  0  0  0
  2 22  1  0  0  0  0
  2 26  1  0  0  0  0
  3  9  1  0  0  0  0
  3 10  1  0  0  0  0
  3 27  1  0  0  0  0
  4 11  1  0  0  0  0
  4 17  2  0  0  0  0
  5  7  1  0  0  0  0
  5 12  1  0  0  0  0
  5 32  1  0  0  0  0
  6 12  2  0  0  0  0
  6 17  1  0  0  0  0
  7 21  2  3  0  0  0
  8  9  1  0  0  0  0
  8 11  1  0  0  0  0
  8 13  2  0  0  0  0
  9 14  2  0  0  0  0
 10 11  2  0  0  0  0
 10 12  1  0  0  0  0
 13 15  1  0  0  0  0
 13 28  1  0  0  0  0
 14 16  1  0  0  0  0
 14 29  1  0  0  0  0
 15 16  2  0  0  0  0
 15 30  1  0  0  0  0
 16 31  1  0  0  0  0
 17 33  1  0  0  0  0
 18 19  2  0  0  0  0
 18 21  1  0  0  0  0
 18 23  1  0  0  0  0
 19 20  1  0  0  0  0
 19 34  1  0  0  0  0
 20 22  2  0  0  0  0
 21 35  1  0  0  0  0
 22 24  1  0  0  0  0
 23 24  2  0  0  0  0
 23 36  1  0  0  0  0
 24 37  1  0  0  0  0
 25 38  1  0  0  0  0
 25 39  1  0  0  0  0
 25 40  1  0  0  0  0
 26 41  1  0  0  0  0
 26 42  1  0  0  0  0
 26 43  1  0  0  0  0
M  END
> <PUBCHEM_COMPOUND_CID>
49830998

> <PUBCHEM_CONFORMER_RMSD>
0.8

> <PUBCHEM_CONFORMER_DIVERSEORDER>
1
51
52
40
22
20
44
16
31
48
15
30
49
33
37
21
19
45
2
54
35
32
50
29
17
41
6
38
34
5
47
46
12
13
53
7
43
18
23
10
8
42
39
11
14
24
25
3
36
28
26
27
4
9

> <PUBCHEM_MMFF94_PARTIAL_CHARGES>
36
1 -0.36
10 -0.15
11 0.26
12 0.41
13 -0.15
14 -0.15
15 -0.15
16 -0.15
17 0.47
18 0.09
19 -0.15
2 -0.36
20 0.08
21 0.3
22 0.08
23 -0.15
24 -0.15
25 0.28
26 0.28
27 0.27
28 0.15
29 0.15
3 0.03
30 0.15
31 0.15
32 0.4
33 0.15
34 0.15
35 0.06
36 0.15
37 0.15
4 -0.57
5 -0.46
6 -0.62
7 -0.49
9 -0.15

> <PUBCHEM_EFFECTIVE_ROTOR_COUNT>
5

> <PUBCHEM_PHARMACOPHORE_FEATURES>
12
1 1 acceptor
1 2 acceptor
1 3 cation
1 3 donor
1 5 donor
1 7 acceptor
3 4 6 17 cation
3 5 6 12 cation
5 3 8 9 10 11 rings
6 18 19 20 22 23 24 rings
6 4 6 10 11 12 17 rings
6 8 9 13 14 15 16 rings

> <PUBCHEM_HEAVY_ATOM_COUNT>
26

> <PUBCHEM_ATOM_DEF_STEREO_COUNT>
0

> <PUBCHEM_ATOM_UDEF_STEREO_COUNT>
0

> <PUBCHEM_BOND_DEF_STEREO_COUNT>
0

> <PUBCHEM_BOND_UDEF_STEREO_COUNT>
1

> <PUBCHEM_ISOTOPIC_ATOM_COUNT>
0

> <PUBCHEM_COMPONENT_COUNT>
1

> <PUBCHEM_CACTVS_TAUTO_COUNT>
5

> <PUBCHEM_CONFORMER_ID>
02F85C5600000001

> <PUBCHEM_MMFF94_ENERGY>
84.1983

> <PUBCHEM_FEATURE_SELFOVERLAP>
61.221

> <PUBCHEM_SHAPE_FINGERPRINT>
10050765 1 18122344571236418219
10299344 5 18344149197946900491
10411042 1 18266458892920935279
10595046 47 18408886213665582250
10835480 77 18336820906230829605
10968037 39 18407759231923047967
11315181 36 18272090492303454579
11524674 6 16415477169058624079
12107183 9 17471851407659139546
12166972 35 18113902671678017764
12236239 1 18186520986427891431
12516196 113 18341894108588972289
13288520 33 18411136940491856375
13533116 47 17168413875341651754
14394314 77 18335424522474457321
14461889 52 18336261361964791898
14856354 85 16415480480572925381
14933364 13 18411419509598492138
15183329 4 18408886217844758738
15338160 23 17059787607280963137
15419008 47 17917985062526874992
15927050 60 17552353701775312988
16087824 20 18264769858594037797
17844677 252 18412269402365084656
18608769 82 18342452664548497074
18681886 176 18341608210175846146
20721686 56 18335142037299600569
21236236 1 18341613673279398281
21267235 1 18410859858174672900
21315763 129 18410292485027747300
21315763 28 18410855464423142086
23522609 53 17985855772321649721
23559900 14 18338791334305326673
3004659 81 18187080663262675456
329604 57 18272653441539866960
34797466 226 17917719015230641108
4073 2 18041002898840638738
4325135 7 18412262830917396422
439807 62 18413108355211586704
497634 4 18339644447648375637
5104073 3 18271520892986382984
67123 10 18410012131644064870
9996256 80 18411138009221333810
999808 66 17968387840329713179

> <PUBCHEM_SHAPE_MULTIPOLES>
498.42
23.5
2.55
0.59
7.67
1.38
0
-7.61
0
0.83
0
-0.02
-0.01
0

> <PUBCHEM_SHAPE_SELFOVERLAP>
1104.624

> <PUBCHEM_SHAPE_VOLUME>
264.4

> <PUBCHEM_COORDINATE_TYPE>
2
5
10

$$$$
