24905185
  -OEChem-10052115143D

 53 56  0     0  0  0  0  0  0999 V2000
    5.4936   -0.0694    0.3760 O   0  0  0  0  0  0  0  0  0  0  0  0
    4.1847   -0.0939   -1.5397 O   0  0  0  0  0  0  0  0  0  0  0  0
   -4.2731   -1.0573   -0.1430 N   0  0  0  0  0  0  0  0  0  0  0  0
    3.2360   -0.1144    0.5480 N   0  0  0  0  0  0  0  0  0  0  0  0
   -2.9756   -1.4084   -0.0725 N   0  0  0  0  0  0  0  0  0  0  0  0
   -5.6512    0.9322   -0.2145 N   0  0  0  0  0  0  0  0  0  0  0  0
   -4.3052    2.9650   -0.1363 N   0  0  0  0  0  0  0  0  0  0  0  0
   -1.9220    2.9299   -0.0065 N   0  0  0  0  0  0  0  0  0  0  0  0
   -5.2862   -2.0843   -0.2010 C   0  0  0  0  0  0  0  0  0  0  0  0
   -2.3369   -0.2338   -0.0348 C   0  0  0  0  0  0  0  0  0  0  0  0
   -3.2157    0.8643   -0.0808 C   0  0  0  0  0  0  0  0  0  0  0  0
   -0.9030   -0.2031    0.0443 C   0  0  0  0  0  0  0  0  0  0  0  0
   -4.4733    0.2911   -0.1511 C   0  0  0  0  0  0  0  0  0  0  0  0
    1.8842   -0.1427    0.1886 C   0  0  0  0  0  0  0  0  0  0  0  0
    1.1293   -0.1602    1.3695 C   0  0  0  0  0  0  0  0  0  0  0  0
    6.6861   -0.0462   -0.4143 C   0  0  0  0  0  0  0  0  0  0  0  0
   -0.2789   -0.1905    1.2933 C   0  0  0  0  0  0  0  0  0  0  0  0
   -0.1456   -0.1856   -1.1200 C   0  0  0  0  0  0  0  0  0  0  0  0
    1.2518   -0.1554   -1.0694 C   0  0  0  0  0  0  0  0  0  0  0  0
   -5.2809   -2.9522    1.0599 C   0  0  0  0  0  0  0  0  0  0  0  0
   -5.1422   -2.9469   -1.4573 C   0  0  0  0  0  0  0  0  0  0  0  0
    2.0386   -0.1415    2.4529 C   0  0  0  0  0  0  0  0  0  0  0  0
    3.3072   -0.1136    1.9303 C   0  0  0  0  0  0  0  0  0  0  0  0
   -3.1537    2.2538   -0.0745 C   0  0  0  0  0  0  0  0  0  0  0  0
    4.3336   -0.0914   -0.3290 C   0  0  0  0  0  0  0  0  0  0  0  0
    6.6673    1.2084   -1.2864 C   0  0  0  0  0  0  0  0  0  0  0  0
    7.8736   -0.0160    0.5453 C   0  0  0  0  0  0  0  0  0  0  0  0
    6.7234   -1.3078   -1.2757 C   0  0  0  0  0  0  0  0  0  0  0  0
   -5.4657    2.2699   -0.2015 C   0  0  0  0  0  0  0  0  0  0  0  0
   -6.2592   -1.5809   -0.2535 H   0  0  0  0  0  0  0  0  0  0  0  0
   -0.8659   -0.2035    2.2090 H   0  0  0  0  0  0  0  0  0  0  0  0
   -0.6288   -0.1947   -2.0953 H   0  0  0  0  0  0  0  0  0  0  0  0
    1.8151   -0.1421   -1.9958 H   0  0  0  0  0  0  0  0  0  0  0  0
   -4.3477   -3.5179    1.1587 H   0  0  0  0  0  0  0  0  0  0  0  0
   -6.1081   -3.6696    1.0387 H   0  0  0  0  0  0  0  0  0  0  0  0
   -5.3923   -2.3350    1.9582 H   0  0  0  0  0  0  0  0  0  0  0  0
   -4.2038   -3.5124   -1.4553 H   0  0  0  0  0  0  0  0  0  0  0  0
   -5.1544   -2.3259   -2.3599 H   0  0  0  0  0  0  0  0  0  0  0  0
   -5.9666   -3.6641   -1.5301 H   0  0  0  0  0  0  0  0  0  0  0  0
    1.7963   -0.1477    3.5068 H   0  0  0  0  0  0  0  0  0  0  0  0
    4.2595   -0.0934    2.4435 H   0  0  0  0  0  0  0  0  0  0  0  0
    5.9927    1.1522   -2.1445 H   0  0  0  0  0  0  0  0  0  0  0  0
    6.3732    2.0879   -0.7018 H   0  0  0  0  0  0  0  0  0  0  0  0
    7.6631    1.3998   -1.7035 H   0  0  0  0  0  0  0  0  0  0  0  0
    7.8618   -0.8909    1.2053 H   0  0  0  0  0  0  0  0  0  0  0  0
    7.8236    0.8638    1.1971 H   0  0  0  0  0  0  0  0  0  0  0  0
    8.8293    0.0023    0.0114 H   0  0  0  0  0  0  0  0  0  0  0  0
    6.4819   -2.1957   -0.6796 H   0  0  0  0  0  0  0  0  0  0  0  0
    6.0353   -1.2956   -2.1247 H   0  0  0  0  0  0  0  0  0  0  0  0
    7.7230   -1.4511   -1.7029 H   0  0  0  0  0  0  0  0  0  0  0  0
   -6.3681    2.8699   -0.2498 H   0  0  0  0  0  0  0  0  0  0  0  0
   -1.0480    2.4272    0.0396 H   0  0  0  0  0  0  0  0  0  0  0  0
   -1.9221    3.9411   -0.0054 H   0  0  0  0  0  0  0  0  0  0  0  0
  1 16  1  0  0  0  0
  1 25  1  0  0  0  0
  2 25  2  0  0  0  0
  3  5  1  0  0  0  0
  3  9  1  0  0  0  0
  3 13  1  0  0  0  0
  4 14  1  0  0  0  0
  4 23  1  0  0  0  0
  4 25  1  0  0  0  0
  5 10  2  0  0  0  0
  6 13  2  0  0  0  0
  6 29  1  0  0  0  0
  7 24  1  0  0  0  0
  7 29  2  0  0  0  0
  8 24  1  0  0  0  0
  8 52  1  0  0  0  0
  8 53  1  0  0  0  0
  9 20  1  0  0  0  0
  9 21  1  0  0  0  0
  9 30  1  0  0  0  0
 10 11  1  0  0  0  0
 10 12  1  0  0  0  0
 11 13  1  0  0  0  0
 11 24  2  0  0  0  0
 12 17  2  0  0  0  0
 12 18  1  0  0  0  0
 14 15  2  0  0  0  0
 14 19  1  0  0  0  0
 15 17  1  0  0  0  0
 15 22  1  0  0  0  0
 16 26  1  0  0  0  0
 16 27  1  0  0  0  0
 16 28  1  0  0  0  0
 17 31  1  0  0  0  0
 18 19  2  0  0  0  0
 18 32  1  0  0  0  0
 19 33  1  0  0  0  0
 20 34  1  0  0  0  0
 20 35  1  0  0  0  0
 20 36  1  0  0  0  0
 21 37  1  0  0  0  0
 21 38  1  0  0  0  0
 21 39  1  0  0  0  0
 22 23  2  0  0  0  0
 22 40  1  0  0  0  0
 23 41  1  0  0  0  0
 26 42  1  0  0  0  0
 26 43  1  0  0  0  0
 26 44  1  0  0  0  0
 27 45  1  0  0  0  0
 27 46  1  0  0  0  0
 27 47  1  0  0  0  0
 28 48  1  0  0  0  0
 28 49  1  0  0  0  0
 28 50  1  0  0  0  0
 29 51  1  0  0  0  0
M  END
> <PUBCHEM_COMPOUND_CID>
24905185

> <PUBCHEM_CONFORMER_RMSD>
0.8

> <PUBCHEM_CONFORMER_DIVERSEORDER>
1
12
11
16
17
9
4
14
19
13
3
7
8
2
15
18
6
5
10

> <PUBCHEM_MMFF94_PARTIAL_CHARGES>
30
1 -0.43
10 0.23
12 0.05
13 0.11
14 -0.15
16 0.28
17 -0.15
18 -0.15
19 -0.15
2 -0.57
22 -0.15
23 -0.3
24 0.41
25 0.73
29 0.47
3 0.31
31 0.15
32 0.15
33 0.15
4 0.29
40 0.15
41 0.15
5 -0.71
51 0.15
52 0.4
53 0.4
6 -0.57
7 -0.62
8 -0.9
9 0.26

> <PUBCHEM_EFFECTIVE_ROTOR_COUNT>
5

> <PUBCHEM_PHARMACOPHORE_FEATURES>
12
1 2 acceptor
1 5 acceptor
1 8 cation
1 8 donor
3 3 6 13 cation
3 6 7 29 cation
3 9 20 21 hydrophobe
4 16 26 27 28 hydrophobe
5 3 5 10 11 13 rings
5 4 14 15 22 23 rings
6 12 14 15 17 18 19 rings
6 6 7 11 13 24 29 rings

> <PUBCHEM_HEAVY_ATOM_COUNT>
29

> <PUBCHEM_ATOM_DEF_STEREO_COUNT>
0

> <PUBCHEM_ATOM_UDEF_STEREO_COUNT>
0

> <PUBCHEM_BOND_DEF_STEREO_COUNT>
0

> <PUBCHEM_BOND_UDEF_STEREO_COUNT>
0

> <PUBCHEM_ISOTOPIC_ATOM_COUNT>
0

> <PUBCHEM_COMPONENT_COUNT>
1

> <PUBCHEM_CACTVS_TAUTO_COUNT>
5

> <PUBCHEM_CONFORMER_ID>
017C05E100000001

> <PUBCHEM_MMFF94_ENERGY>
74.6967

> <PUBCHEM_FEATURE_SELFOVERLAP>
61.263

> <PUBCHEM_SHAPE_FINGERPRINT>
10411042 1 18194402424059099847
10595046 47 18333450945956621866
10670039 82 18334851727501074803
11056379 131 18411415129465352571
11089746 13 17821731641609772828
11135926 11 16298380245546245266
11315181 36 17894632590835440599
11545043 162 18131067151661399355
11796584 16 18201439121697625950
12236239 1 17822008692321541904
12403259 415 17703502268106845731
12788726 201 18187361073742138267
13583140 156 17774995774373438399
13631057 29 16878797139782014651
13673619 4 17917714664291698163
13690498 29 18340483465309309303
13782708 43 17774998024841622334
13862211 1 15338837526502630878
13947920 75 18259701198748512195
14849402 71 17459204013553445316
14856354 85 18336270127988053607
15021287 119 14117519861112073011
15183329 4 18338803308668320742
1577012 14 17822009796697816648
15876981 60 18334018302341281165
17686467 74 18189332536676834728
17844677 252 18342177807820860625
18681886 176 18335979869691939496
18927931 339 18341609352547755351
19427546 20 18260264149398330789
20505436 4 17968939661721508001
20511986 3 17385995118971449973
21033648 29 17560221579297125145
21267235 1 18336548317794486267
21315759 40 17458339737510524866
21792961 116 17560807589852994534
2297311 6 18413108385771976403
2303208 19 17775565368572694714
23081809 10 17822004303276513330
23198884 109 18259989262510990546
23522609 53 17749684982637974972
23536379 177 18409731734271362462
23557571 272 18272373062301744093
23559900 14 18201434740434649829
23569914 2 17691633010633662808
23569943 247 16734371717897479258
24771293 8 17386009520582103316
25147074 1 17676757700329116202
2838139 119 17022621966577862884
3178227 256 16702310091548377966
335352 9 18409722973155277061
4073 2 18260274040355085794
4098825 35 18338238163891945094
4339292 15 17917135208716051359
46194498 28 18131350856359568000
497634 4 17821722854006543287
504579 68 18187072966961057519
5265222 85 18200032979601354182
59755656 520 16443353069586487153
7808743 9 18264769861627988377

> <PUBCHEM_SHAPE_MULTIPOLES>
555.18
19.09
2.53
1.52
22.81
0.34
0.56
-2.78
-4.51
-7.13
-0.43
1.61
-0.44
-0.05

> <PUBCHEM_SHAPE_SELFOVERLAP>
1222.374

> <PUBCHEM_SHAPE_VOLUME>
300.8

> <PUBCHEM_COORDINATE_TYPE>
2
5
10

$$$$
