14501860
  -OEChem-10052115183D

 28 30  0     0  0  0  0  0  0999 V2000
    4.5333   -0.5463   -0.0293 O   0  0  0  0  0  0  0  0  0  0  0  0
    0.3311    0.0884    0.0074 N   0  0  0  0  0  0  0  0  0  0  0  0
    0.3685    1.4508    0.0200 N   0  0  0  0  0  0  0  0  0  0  0  0
    1.8430   -1.7903   -0.0007 N   0  0  0  0  0  0  0  0  0  0  0  0
    4.6532    1.7435    0.0010 N   0  0  0  0  0  0  0  0  0  0  0  0
   -0.8003   -0.7456    0.0103 C   0  0  0  0  0  0  0  0  0  0  0  0
    1.6233   -0.4458    0.0026 C   0  0  0  0  0  0  0  0  0  0  0  0
   -2.1683   -0.1969    0.0019 C   0  0  0  0  0  0  0  0  0  0  0  0
    2.4894    0.6236    0.0033 C   0  0  0  0  0  0  0  0  0  0  0  0
   -0.6284   -2.0782    0.0072 C   0  0  0  0  0  0  0  0  0  0  0  0
    1.6649    1.7545    0.0138 C   0  0  0  0  0  0  0  0  0  0  0  0
    0.7829   -2.5373    0.0027 C   0  0  0  0  0  0  0  0  0  0  0  0
   -2.8250    0.0590    1.2060 C   0  0  0  0  0  0  0  0  0  0  0  0
   -2.8073    0.0669   -1.2100 C   0  0  0  0  0  0  0  0  0  0  0  0
    3.9193    0.5484   -0.0033 C   0  0  0  0  0  0  0  0  0  0  0  0
   -4.1197    0.5779    1.1982 C   0  0  0  0  0  0  0  0  0  0  0  0
   -4.1020    0.5859   -1.2176 C   0  0  0  0  0  0  0  0  0  0  0  0
   -4.7581    0.8414   -0.0135 C   0  0  0  0  0  0  0  0  0  0  0  0
   -1.4258   -2.8093    0.0044 H   0  0  0  0  0  0  0  0  0  0  0  0
    1.9412    2.7992    0.0189 H   0  0  0  0  0  0  0  0  0  0  0  0
    0.9116   -3.6323    0.0006 H   0  0  0  0  0  0  0  0  0  0  0  0
   -2.3403   -0.1402    2.1588 H   0  0  0  0  0  0  0  0  0  0  0  0
   -2.3088   -0.1260   -2.1569 H   0  0  0  0  0  0  0  0  0  0  0  0
   -4.6306    0.7772    2.1357 H   0  0  0  0  0  0  0  0  0  0  0  0
   -4.5993    0.7915   -2.1610 H   0  0  0  0  0  0  0  0  0  0  0  0
   -5.7661    1.2457   -0.0195 H   0  0  0  0  0  0  0  0  0  0  0  0
    4.2156    2.6587    0.0148 H   0  0  0  0  0  0  0  0  0  0  0  0
    5.6677    1.7253   -0.0096 H   0  0  0  0  0  0  0  0  0  0  0  0
  1 15  2  0  0  0  0
  2  3  1  0  0  0  0
  2  6  1  0  0  0  0
  2  7  1  0  0  0  0
  3 11  2  0  0  0  0
  4  7  1  0  0  0  0
  4 12  2  0  0  0  0
  5 15  1  0  0  0  0
  5 27  1  0  0  0  0
  5 28  1  0  0  0  0
  6  8  1  0  0  0  0
  6 10  2  0  0  0  0
  7  9  2  0  0  0  0
  8 13  2  0  0  0  0
  8 14  1  0  0  0  0
  9 11  1  0  0  0  0
  9 15  1  0  0  0  0
 10 12  1  0  0  0  0
 10 19  1  0  0  0  0
 11 20  1  0  0  0  0
 12 21  1  0  0  0  0
 13 16  1  0  0  0  0
 13 22  1  0  0  0  0
 14 17  2  0  0  0  0
 14 23  1  0  0  0  0
 16 18  2  0  0  0  0
 16 24  1  0  0  0  0
 17 18  1  0  0  0  0
 17 25  1  0  0  0  0
 18 26  1  0  0  0  0
M  END
> <PUBCHEM_COMPOUND_CID>
14501860

> <PUBCHEM_CONFORMER_RMSD>
0.6

> <PUBCHEM_CONFORMER_DIVERSEORDER>
1
3
4
2

> <PUBCHEM_MMFF94_PARTIAL_CHARGES>
28
1 -0.57
10 -0.14
11 0.14
12 0.38
13 -0.15
14 -0.15
15 0.72
16 -0.15
17 -0.15
18 -0.15
19 0.15
2 0.6
20 0.15
21 0.06
22 0.15
23 0.15
24 0.15
25 0.15
26 0.15
27 0.37
28 0.37
3 -0.71
4 -0.58
5 -0.8
6 -0.06
7 -0.03
8 0.03
9 -0.09

> <PUBCHEM_EFFECTIVE_ROTOR_COUNT>
2

> <PUBCHEM_PHARMACOPHORE_FEATURES>
7
1 1 acceptor
1 3 acceptor
1 4 acceptor
1 5 donor
5 2 3 7 9 11 rings
6 2 4 6 7 10 12 rings
6 8 13 14 16 17 18 rings

> <PUBCHEM_HEAVY_ATOM_COUNT>
18

> <PUBCHEM_ATOM_DEF_STEREO_COUNT>
0

> <PUBCHEM_ATOM_UDEF_STEREO_COUNT>
0

> <PUBCHEM_BOND_DEF_STEREO_COUNT>
0

> <PUBCHEM_BOND_UDEF_STEREO_COUNT>
0

> <PUBCHEM_ISOTOPIC_ATOM_COUNT>
0

> <PUBCHEM_COMPONENT_COUNT>
1

> <PUBCHEM_CACTVS_TAUTO_COUNT>
2

> <PUBCHEM_CONFORMER_ID>
00DD47E400000001

> <PUBCHEM_MMFF94_ENERGY>
48.0223

> <PUBCHEM_FEATURE_SELFOVERLAP>
35.65

> <PUBCHEM_SHAPE_FINGERPRINT>
10411042 1 17617940231750077354
10980938 120 18411134693358998679
11471102 20 18410572859896412934
11543360 7 15697997487360581328
12236239 1 17775284941958166769
12644460 14 18188207598489109210
13140716 1 18265894838211171608
13583140 156 16371549509926681852
13675066 3 17822293517610204712
14790565 3 18410023143102201892
15099037 51 18410576193360792446
15196674 1 18410856598674524226
15219456 202 18040999493073535983
15309172 13 18408887347521227971
15375358 24 18113616764072939409
15653759 3 17022903462691708753
15775835 57 18272368668254716805
16945 1 18410855447306673874
1813 80 17411911573968201782
18186145 218 18342179972468332572
18219364 16 18335427889137655363
19049666 15 17533774906445792991
19862831 5 17632857529626197969
200 152 18201996668755657967
20279233 1 17749394741563992859
204376 136 18409168843709089442
20645477 56 18188203316628273884
20645477 70 18266452123108354983
21499 59 18413106165031427623
21524375 3 18337390547284342271
21639500 275 18339913858056131431
231179 274 18040992929798953404
23402539 116 17846778507378362000
23402655 69 18272646806168698877
23493267 7 17458339723787073745
23557571 272 14261350237411746403
23559900 14 16589153705998847787
25 1 18410290311214970431
2748010 2 18123472945239160422
293599 30 18337113462175567412
335352 9 18410856551883558558
350125 39 18121505918894968715
4072396 5 18263064566527131410
474 4 18413109459344943361
5104073 3 18337105774046763474
602551 16 16081382889677478841
633830 44 18201168697270360676
77492 1 17703784765934748843
81228 2 17542778063756890323
81539 233 18187365411110272434
8272917 22 18269558243577823071
9981440 41 16550834948260247376

> <PUBCHEM_SHAPE_MULTIPOLES>
344.64
8.89
1.98
0.94
0.11
0.96
0
-4.13
0.04
1.43
0
-1.21
-0.11
0.02

> <PUBCHEM_SHAPE_SELFOVERLAP>
764.697

> <PUBCHEM_SHAPE_VOLUME>
183.8

> <PUBCHEM_COORDINATE_TYPE>
2
5
10

$$$$
