44375703
  -OEChem-10062121593D

 54 58  0     0  0  0  0  0  0999 V2000
   -1.1747    1.1142    1.7280 S   0  0  0  0  0  0  0  0  0  0  0  0
    3.8398    1.5404    1.6935 O   0  0  0  0  0  0  0  0  0  0  0  0
    2.6863    4.4164   -1.6833 O   0  0  0  0  0  0  0  0  0  0  0  0
    0.4197   -1.7232    0.2858 N   0  0  0  0  0  0  0  0  0  0  0  0
   -3.6269   -2.9936   -0.1552 N   0  0  0  0  0  0  0  0  0  0  0  0
    3.5355    3.2474    0.1470 N   0  0  0  0  0  0  0  0  0  0  0  0
    0.4986   -0.3613    0.1701 C   0  0  0  0  0  0  0  0  0  0  0  0
   -0.8002   -2.4810    0.4848 C   0  0  0  0  0  0  0  0  0  0  0  0
    1.6738   -2.2818    0.1829 C   0  0  0  0  0  0  0  0  0  0  0  0
    1.8210   -0.0274   -0.0107 C   0  0  0  0  0  0  0  0  0  0  0  0
    2.5768   -1.2331   -0.0048 C   0  0  0  0  0  0  0  0  0  0  0  0
   -1.2700   -3.1486   -0.8102 C   0  0  0  0  0  0  0  0  0  0  0  0
   -0.6431    0.4823    0.2369 C   0  0  0  0  0  0  0  0  0  0  0  0
    2.3367    1.3330   -0.1781 C   0  0  0  0  0  0  0  0  0  0  0  0
   -2.5787   -3.9069   -0.5946 C   0  0  0  0  0  0  0  0  0  0  0  0
    2.0739   -3.6215    0.2410 C   0  0  0  0  0  0  0  0  0  0  0  0
    3.9466   -1.5338   -0.1417 C   0  0  0  0  0  0  0  0  0  0  0  0
   -1.4372    0.8900   -0.8085 C   0  0  0  0  0  0  0  0  0  0  0  0
    3.4376   -3.8955    0.1029 C   0  0  0  0  0  0  0  0  0  0  0  0
    4.3613   -2.8695   -0.0856 C   0  0  0  0  0  0  0  0  0  0  0  0
   -2.5136    1.7435   -0.3926 C   0  0  0  0  0  0  0  0  0  0  0  0
    3.3330    2.0099    0.6890 C   0  0  0  0  0  0  0  0  0  0  0  0
    2.0064    2.1937   -1.1510 C   0  0  0  0  0  0  0  0  0  0  0  0
   -2.4890    1.9517    0.9900 C   0  0  0  0  0  0  0  0  0  0  0  0
    2.7665    3.4379   -0.9619 C   0  0  0  0  0  0  0  0  0  0  0  0
   -4.1279   -2.2037   -1.2814 C   0  0  0  0  0  0  0  0  0  0  0  0
   -4.7231   -3.7317    0.4746 C   0  0  0  0  0  0  0  0  0  0  0  0
   -3.5378    2.3675   -1.1454 C   0  0  0  0  0  0  0  0  0  0  0  0
   -3.4505    2.7577    1.6306 C   0  0  0  0  0  0  0  0  0  0  0  0
   -4.4930    3.1676   -0.5130 C   0  0  0  0  0  0  0  0  0  0  0  0
   -4.4479    3.3594    0.8607 C   0  0  0  0  0  0  0  0  0  0  0  0
   -0.5951   -3.2338    1.2557 H   0  0  0  0  0  0  0  0  0  0  0  0
   -1.5645   -1.8220    0.9027 H   0  0  0  0  0  0  0  0  0  0  0  0
   -1.3604   -2.4078   -1.6127 H   0  0  0  0  0  0  0  0  0  0  0  0
   -0.5147   -3.8640   -1.1573 H   0  0  0  0  0  0  0  0  0  0  0  0
   -2.3926   -4.6710    0.1720 H   0  0  0  0  0  0  0  0  0  0  0  0
   -2.8621   -4.4455   -1.5079 H   0  0  0  0  0  0  0  0  0  0  0  0
    1.3651   -4.4286    0.3910 H   0  0  0  0  0  0  0  0  0  0  0  0
    4.6808   -0.7473   -0.2908 H   0  0  0  0  0  0  0  0  0  0  0  0
   -1.2664    0.5950   -1.8375 H   0  0  0  0  0  0  0  0  0  0  0  0
    3.7818   -4.9258    0.1441 H   0  0  0  0  0  0  0  0  0  0  0  0
    5.4165   -3.1074   -0.1906 H   0  0  0  0  0  0  0  0  0  0  0  0
    1.3165    2.0353   -1.9640 H   0  0  0  0  0  0  0  0  0  0  0  0
    4.1682    3.9409    0.5292 H   0  0  0  0  0  0  0  0  0  0  0  0
   -3.3510   -1.5646   -1.7106 H   0  0  0  0  0  0  0  0  0  0  0  0
   -4.9191   -1.5237   -0.9442 H   0  0  0  0  0  0  0  0  0  0  0  0
   -4.5405   -2.8324   -2.0790 H   0  0  0  0  0  0  0  0  0  0  0  0
   -4.3657   -4.2763    1.3556 H   0  0  0  0  0  0  0  0  0  0  0  0
   -5.1859   -4.4494   -0.2126 H   0  0  0  0  0  0  0  0  0  0  0  0
   -5.4981   -3.0425    0.8284 H   0  0  0  0  0  0  0  0  0  0  0  0
   -3.5864    2.2262   -2.2223 H   0  0  0  0  0  0  0  0  0  0  0  0
   -3.4229    2.9134    2.7054 H   0  0  0  0  0  0  0  0  0  0  0  0
   -5.2739    3.6408   -1.1015 H   0  0  0  0  0  0  0  0  0  0  0  0
   -5.1951    3.9833    1.3437 H   0  0  0  0  0  0  0  0  0  0  0  0
  1 13  1  0  0  0  0
  1 24  1  0  0  0  0
  2 22  2  0  0  0  0
  3 25  2  0  0  0  0
  4  7  1  0  0  0  0
  4  8  1  0  0  0  0
  4  9  1  0  0  0  0
  5 15  1  0  0  0  0
  5 26  1  0  0  0  0
  5 27  1  0  0  0  0
  6 22  1  0  0  0  0
  6 25  1  0  0  0  0
  6 44  1  0  0  0  0
  7 10  2  0  0  0  0
  7 13  1  0  0  0  0
  8 12  1  0  0  0  0
  8 32  1  0  0  0  0
  8 33  1  0  0  0  0
  9 11  1  0  0  0  0
  9 16  2  0  0  0  0
 10 11  1  0  0  0  0
 10 14  1  0  0  0  0
 11 17  2  0  0  0  0
 12 15  1  0  0  0  0
 12 34  1  0  0  0  0
 12 35  1  0  0  0  0
 13 18  2  0  0  0  0
 14 22  1  0  0  0  0
 14 23  2  0  0  0  0
 15 36  1  0  0  0  0
 15 37  1  0  0  0  0
 16 19  1  0  0  0  0
 16 38  1  0  0  0  0
 17 20  1  0  0  0  0
 17 39  1  0  0  0  0
 18 21  1  0  0  0  0
 18 40  1  0  0  0  0
 19 20  2  0  0  0  0
 19 41  1  0  0  0  0
 20 42  1  0  0  0  0
 21 24  1  0  0  0  0
 21 28  2  0  0  0  0
 23 25  1  0  0  0  0
 23 43  1  0  0  0  0
 24 29  2  0  0  0  0
 26 45  1  0  0  0  0
 26 46  1  0  0  0  0
 26 47  1  0  0  0  0
 27 48  1  0  0  0  0
 27 49  1  0  0  0  0
 27 50  1  0  0  0  0
 28 30  1  0  0  0  0
 28 51  1  0  0  0  0
 29 31  1  0  0  0  0
 29 52  1  0  0  0  0
 30 31  2  0  0  0  0
 30 53  1  0  0  0  0
 31 54  1  0  0  0  0
M  END
> <PUBCHEM_COMPOUND_CID>
44375703

> <PUBCHEM_CONFORMER_RMSD>
0.8

> <PUBCHEM_CONFORMER_DIVERSEORDER>
1
54
66
62
64
43
71
59
70
33
25
45
30
15
50
46
24
67
26
41
53
57
44
60
51
38
69
65
6
40
32
42
56
55
18
2
48
17
72
52
58
68
39
29
23
7
63
13
16
35
28
36
20
37
21
34
27
22
3
9
47
49
4
31
5
12
10
8
11
19
14
61

> <PUBCHEM_MMFF94_PARTIAL_CHARGES>
39
1 -0.08
10 -0.05
13 0.04
14 0.06
15 0.27
16 -0.15
17 -0.15
18 -0.15
19 -0.15
2 -0.57
20 -0.15
22 0.62
23 -0.14
24 0.04
25 0.62
26 0.27
27 0.27
28 -0.15
29 -0.15
3 -0.57
30 -0.15
31 -0.15
38 0.15
39 0.15
4 0.05
40 0.15
41 0.15
42 0.15
43 0.15
44 0.37
5 -0.81
51 0.15
52 0.15
53 0.15
54 0.15
6 -0.49
7 -0.15
8 0.26
9 -0.15

> <PUBCHEM_EFFECTIVE_ROTOR_COUNT>
6.2

> <PUBCHEM_PHARMACOPHORE_FEATURES>
10
1 2 acceptor
1 3 acceptor
1 4 cation
1 5 cation
1 6 donor
5 1 13 18 21 24 rings
5 4 7 9 10 11 rings
5 6 14 22 23 25 rings
6 21 24 28 29 30 31 rings
6 9 11 16 17 19 20 rings

> <PUBCHEM_HEAVY_ATOM_COUNT>
31

> <PUBCHEM_ATOM_DEF_STEREO_COUNT>
0

> <PUBCHEM_ATOM_UDEF_STEREO_COUNT>
0

> <PUBCHEM_BOND_DEF_STEREO_COUNT>
0

> <PUBCHEM_BOND_UDEF_STEREO_COUNT>
0

> <PUBCHEM_ISOTOPIC_ATOM_COUNT>
0

> <PUBCHEM_COMPONENT_COUNT>
1

> <PUBCHEM_CACTVS_TAUTO_COUNT>
3

> <PUBCHEM_CONFORMER_ID>
02A51E9700000001

> <PUBCHEM_MMFF94_ENERGY>
68.2729

> <PUBCHEM_FEATURE_SELFOVERLAP>
50.899

> <PUBCHEM_SHAPE_FINGERPRINT>
10190108 129 17903109881388935435
10675989 125 18049438446358335637
1100329 8 18268708299134875603
11421498 54 18122623027093674075
11578080 2 17774421846125387266
12236239 1 17413295884987352329
12788726 201 17906175401063627389
13140716 1 18340487759675036787
1361 2 17834958573355377619
13911987 19 17831030026393198150
14178342 30 18339348752082024624
14400156 413 18118952832180553503
14790565 3 17764033463150921312
14955137 171 17906751210206882307
15439362 3 18338509730042260156
15484559 13 17764020269259178679
15815584 197 17332821448277441463
17138139 8 17625497300749378087
1813 80 17623297074106651092
18681886 176 18123183511645865843
20642791 105 18267006444340759376
20739085 24 17691143538631341264
21033648 29 17767103329232440792
22113638 7 18122346774443572467
23558518 356 18408040731957672515
23576562 1 18262813894744852700
266924 87 18194966463884168462
283562 15 17979640352857791924
3178227 256 18050862017996326025
340366 18 18264774255189037037
3493558 16 18116703209223619239
350125 39 18339083812750443914
463206 1 18120374255015934086
469060 322 18049732003415900809
7164475 11 18339078314569871319
9981440 41 18196637700442612224

> <PUBCHEM_SHAPE_MULTIPOLES>
615.13
9.24
7.06
1.29
3.4
2.28
0.14
-0.7
0.5
0.97
-1.45
0.63
-0.95
-1.32

> <PUBCHEM_SHAPE_SELFOVERLAP>
1355.426

> <PUBCHEM_SHAPE_VOLUME>
337.5

> <PUBCHEM_COORDINATE_TYPE>
2
5
10

$$$$
