24180608
  -OEChem-10062121573D

 59 63  0     1  0  0  0  0  0999 V2000
    7.8323   -1.2975    0.7122 S   0  0  1  0  0  0  0  0  0  0  0  0
   -7.4346   -2.4946   -0.0969 O   0  0  0  0  0  0  0  0  0  0  0  0
    8.5541   -0.8418   -0.5253 O   0  0  0  0  0  0  0  0  0  0  0  0
    1.0508   -0.5076   -0.0742 N   0  0  0  0  0  0  0  0  0  0  0  0
    1.6404    1.6215    0.1539 N   0  0  0  0  0  0  0  0  0  0  0  0
   -2.2959    4.8744   -0.0356 N   0  0  0  0  0  0  0  0  0  0  0  0
   -0.1085    0.2118   -0.1483 C   0  0  0  0  0  0  0  0  0  0  0  0
    2.0738    0.3812    0.1077 C   0  0  0  0  0  0  0  0  0  0  0  0
    0.2808    1.5228   -0.0045 C   0  0  0  0  0  0  0  0  0  0  0  0
   -1.4095   -0.3819   -0.3384 C   0  0  0  0  0  0  0  0  0  0  0  0
    3.4572   -0.0209    0.2319 C   0  0  0  0  0  0  0  0  0  0  0  0
   -2.4057   -0.2009    0.6215 C   0  0  0  0  0  0  0  0  0  0  0  0
    4.2790   -0.1298   -0.8899 C   0  0  0  0  0  0  0  0  0  0  0  0
   -3.6766   -0.7737    0.4517 C   0  0  0  0  0  0  0  0  0  0  0  0
    1.1728   -1.9465   -0.1688 C   0  0  0  0  0  0  0  0  0  0  0  0
   -1.6691   -1.1361   -1.4789 C   0  0  0  0  0  0  0  0  0  0  0  0
   -0.5923    2.6581   -0.0148 C   0  0  0  0  0  0  0  0  0  0  0  0
   -3.9408   -1.5407   -0.7081 C   0  0  0  0  0  0  0  0  0  0  0  0
    3.9671   -0.3009    1.4997 C   0  0  0  0  0  0  0  0  0  0  0  0
   -2.9262   -1.7123   -1.6639 C   0  0  0  0  0  0  0  0  0  0  0  0
    5.6107   -0.5184   -0.7441 C   0  0  0  0  0  0  0  0  0  0  0  0
    6.1206   -0.7985    0.5236 C   0  0  0  0  0  0  0  0  0  0  0  0
    5.2987   -0.6899    1.6454 C   0  0  0  0  0  0  0  0  0  0  0  0
   -4.6912   -0.6018    1.4075 C   0  0  0  0  0  0  0  0  0  0  0  0
    3.7672    0.1616   -2.2645 C   0  0  0  0  0  0  0  0  0  0  0  0
   -5.2119   -2.1132   -0.8778 C   0  0  0  0  0  0  0  0  0  0  0  0
   -1.3747    2.9267   -1.1326 C   0  0  0  0  0  0  0  0  0  0  0  0
   -0.6606    3.4965    1.0925 C   0  0  0  0  0  0  0  0  0  0  0  0
   -6.2081   -1.9324    0.0821 C   0  0  0  0  0  0  0  0  0  0  0  0
   -5.9482   -1.1783    1.2225 C   0  0  0  0  0  0  0  0  0  0  0  0
   -2.2025    4.0372   -1.0930 C   0  0  0  0  0  0  0  0  0  0  0  0
   -1.5205    4.5813    1.0325 C   0  0  0  0  0  0  0  0  0  0  0  0
    7.5779   -3.0848    0.5514 C   0  0  0  0  0  0  0  0  0  0  0  0
   -8.4066   -2.2707    0.9234 C   0  0  0  0  0  0  0  0  0  0  0  0
   -2.1979    0.3837    1.5169 H   0  0  0  0  0  0  0  0  0  0  0  0
    1.2462   -2.2149   -1.2254 H   0  0  0  0  0  0  0  0  0  0  0  0
    2.0628   -2.2859    0.3652 H   0  0  0  0  0  0  0  0  0  0  0  0
    0.3034   -2.4204    0.2934 H   0  0  0  0  0  0  0  0  0  0  0  0
   -0.9109   -1.2792   -2.2451 H   0  0  0  0  0  0  0  0  0  0  0  0
    3.3402   -0.2211    2.3848 H   0  0  0  0  0  0  0  0  0  0  0  0
   -3.1079   -2.2957   -2.5641 H   0  0  0  0  0  0  0  0  0  0  0  0
    6.2438   -0.6069   -1.6236 H   0  0  0  0  0  0  0  0  0  0  0  0
    5.6815   -0.9050    2.6398 H   0  0  0  0  0  0  0  0  0  0  0  0
   -4.5094   -0.0157    2.3061 H   0  0  0  0  0  0  0  0  0  0  0  0
    2.9808   -0.5482   -2.5412 H   0  0  0  0  0  0  0  0  0  0  0  0
    3.3737    1.1819   -2.3229 H   0  0  0  0  0  0  0  0  0  0  0  0
    4.5571    0.0806   -3.0194 H   0  0  0  0  0  0  0  0  0  0  0  0
   -5.4314   -2.7060   -1.7641 H   0  0  0  0  0  0  0  0  0  0  0  0
   -1.3469    2.3045   -2.0215 H   0  0  0  0  0  0  0  0  0  0  0  0
   -0.0673    3.3195    1.9838 H   0  0  0  0  0  0  0  0  0  0  0  0
   -6.6754   -0.9980    2.0068 H   0  0  0  0  0  0  0  0  0  0  0  0
   -2.8316    4.2914   -1.9398 H   0  0  0  0  0  0  0  0  0  0  0  0
   -1.6113    5.2650    1.8701 H   0  0  0  0  0  0  0  0  0  0  0  0
    8.5524   -3.5773    0.5920 H   0  0  0  0  0  0  0  0  0  0  0  0
    7.0980   -3.3116   -0.4039 H   0  0  0  0  0  0  0  0  0  0  0  0
    6.9591   -3.4426    1.3779 H   0  0  0  0  0  0  0  0  0  0  0  0
   -9.3212   -2.7893    0.6176 H   0  0  0  0  0  0  0  0  0  0  0  0
   -8.6570   -1.2083    1.0146 H   0  0  0  0  0  0  0  0  0  0  0  0
   -8.0956   -2.7076    1.8784 H   0  0  0  0  0  0  0  0  0  0  0  0
  1  3  2  0  0  0  0
  1 22  1  0  0  0  0
  1 33  1  0  0  0  0
  2 29  1  0  0  0  0
  2 34  1  0  0  0  0
  4  7  1  0  0  0  0
  4  8  1  0  0  0  0
  4 15  1  0  0  0  0
  5  8  2  0  0  0  0
  5  9  1  0  0  0  0
  6 31  2  0  0  0  0
  6 32  1  0  0  0  0
  7  9  2  0  0  0  0
  7 10  1  0  0  0  0
  8 11  1  0  0  0  0
  9 17  1  0  0  0  0
 10 12  2  0  0  0  0
 10 16  1  0  0  0  0
 11 13  2  0  0  0  0
 11 19  1  0  0  0  0
 12 14  1  0  0  0  0
 12 35  1  0  0  0  0
 13 21  1  0  0  0  0
 13 25  1  0  0  0  0
 14 18  2  0  0  0  0
 14 24  1  0  0  0  0
 15 36  1  0  0  0  0
 15 37  1  0  0  0  0
 15 38  1  0  0  0  0
 16 20  2  0  0  0  0
 16 39  1  0  0  0  0
 17 27  2  0  0  0  0
 17 28  1  0  0  0  0
 18 20  1  0  0  0  0
 18 26  1  0  0  0  0
 19 23  2  0  0  0  0
 19 40  1  0  0  0  0
 20 41  1  0  0  0  0
 21 22  2  0  0  0  0
 21 42  1  0  0  0  0
 22 23  1  0  0  0  0
 23 43  1  0  0  0  0
 24 30  2  0  0  0  0
 24 44  1  0  0  0  0
 25 45  1  0  0  0  0
 25 46  1  0  0  0  0
 25 47  1  0  0  0  0
 26 29  2  0  0  0  0
 26 48  1  0  0  0  0
 27 31  1  0  0  0  0
 27 49  1  0  0  0  0
 28 32  2  0  0  0  0
 28 50  1  0  0  0  0
 29 30  1  0  0  0  0
 30 51  1  0  0  0  0
 31 52  1  0  0  0  0
 32 53  1  0  0  0  0
 33 54  1  0  0  0  0
 33 55  1  0  0  0  0
 33 56  1  0  0  0  0
 34 57  1  0  0  0  0
 34 58  1  0  0  0  0
 34 59  1  0  0  0  0
M  END
> <PUBCHEM_COMPOUND_CID>
24180608

> <PUBCHEM_CONFORMER_RMSD>
0.8

> <PUBCHEM_CONFORMER_DIVERSEORDER>
1
22
14
13
25
27
10
5
4
19
11
24
18
7
21
16
20
8
29
23
2
15
17
3
9
6
26
12
28

> <PUBCHEM_MMFF94_PARTIAL_CHARGES>
45
1 0.24
10 0.05
11 0.05
12 -0.15
13 -0.14
15 0.26
16 -0.15
17 0.05
19 -0.15
2 -0.36
20 -0.15
21 -0.15
22 0.06
23 -0.15
24 -0.15
25 0.14
26 -0.15
27 -0.15
28 -0.15
29 0.08
3 -0.5
30 -0.15
31 0.16
32 0.16
33 0.19
34 0.28
35 0.15
39 0.15
4 0.05
40 0.15
41 0.15
42 0.15
43 0.15
44 0.15
48 0.15
49 0.15
5 -0.57
50 0.15
51 0.15
52 0.15
53 0.15
6 -0.62
7 -0.2
8 0.13
9 0.17

> <PUBCHEM_EFFECTIVE_ROTOR_COUNT>
5

> <PUBCHEM_PHARMACOPHORE_FEATURES>
9
1 2 acceptor
1 3 acceptor
1 6 acceptor
3 4 5 8 cation
5 4 5 7 8 9 rings
6 10 12 14 16 18 20 rings
6 11 13 19 21 22 23 rings
6 14 18 24 26 29 30 rings
6 6 17 27 28 31 32 rings

> <PUBCHEM_HEAVY_ATOM_COUNT>
34

> <PUBCHEM_ATOM_DEF_STEREO_COUNT>
0

> <PUBCHEM_ATOM_UDEF_STEREO_COUNT>
1

> <PUBCHEM_BOND_DEF_STEREO_COUNT>
0

> <PUBCHEM_BOND_UDEF_STEREO_COUNT>
0

> <PUBCHEM_ISOTOPIC_ATOM_COUNT>
0

> <PUBCHEM_COMPONENT_COUNT>
1

> <PUBCHEM_CACTVS_TAUTO_COUNT>
1

> <PUBCHEM_CONFORMER_ID>
0170F78000000001

> <PUBCHEM_MMFF94_ENERGY>
110.9832

> <PUBCHEM_FEATURE_SELFOVERLAP>
45.7

> <PUBCHEM_SHAPE_FINGERPRINT>
10050765 1 18122624951566291058
102385 1 17978511927921999791
10290309 65 17702386144306004334
10411042 1 18410291449782444833
11062273 23 18269829831492800449
11331351 85 17989210373960707861
11377469 6 18040988523821891014
11421498 54 18260823778656496875
11456790 92 18334587871756592835
11991303 11 17825942625094694629
12107698 1 18409730669214646012
12166972 35 17821446885288273348
12516196 113 18410292553625846339
12539745 222 17988648454155503040
12633046 712 17898855918404484847
12741549 16 17894620492287459173
12760667 363 18334012795781406098
12788726 201 18334569114431793347
13383668 254 15338536290096815250
13540713 4 17843693153697847214
13631057 29 18333730191592248112
13673619 4 18202280316806472728
13782708 43 18059568045913311838
14068700 675 18334016103011979012
14118638 360 18187370926913715828
14294032 229 18193283996414683685
14347332 77 18410576159053801628
14400156 188 18188775092982692811
14955137 171 18267307706526805091
15021287 119 18200311160717859495
15183329 4 15285629989370001178
15276724 80 18340766031297656836
15347591 1 18267022753322897434
15420108 30 17053569039601614176
16087824 20 18267581318136620813
16090146 7 17168438082025544002
16114785 44 14692006878126750985
1813 80 18341901839261268421
19301679 30 18411139091189771171
21057603 238 17842013096131712326
21267235 1 18409729586028461986
2132832 1 18187086161449211900
21424621 283 8214156165222831511
21639891 77 18200585904642600008
21641784 216 18113915852399867308
21792961 116 18260256431073406071
22182313 1 17844813590316540476
23845131 108 17552086099970561801
24771293 8 17771331248036354720
249057 25 17749402434319886540
2747138 104 18408038537862244618
283562 15 18334575698532196915
3004659 81 17603862330139338898
3552219 110 18187373146531249204
4258327 124 11095588035747043434
4340502 62 15410903971809085030
4409770 3 18339634522074004293
4516262 110 8429781391527587055
469060 322 18337967700494281977
504843 32 17902222322182020613
5080951 261 17987223461232003524
513202 73 18338519642409352931
5219985 9 18409733997344769485
57527293 21 17417235667705545132
5969126 39 18410289203097700837
6698420 124 17481717351281626656
9663363 56 18336818775293891786
9896288 288 18197499528131353529

> <PUBCHEM_SHAPE_MULTIPOLES>
676.87
20.18
4.62
1.49
13.6
7.75
-0.25
-24.58
4.76
-5.88
0.27
0.19
-0.03
-0.4

> <PUBCHEM_SHAPE_SELFOVERLAP>
1493.938

> <PUBCHEM_SHAPE_VOLUME>
369

> <PUBCHEM_COORDINATE_TYPE>
2
5
10

$$$$
