53354074
  -OEChem-10052120443D

 53 56  0     1  0  0  0  0  0999 V2000
   -1.8183   -3.1473   -1.3035 Cl  0  0  0  0  0  0  0  0  0  0  0  0
    2.9920   -3.3157    0.2463 F   0  0  0  0  0  0  0  0  0  0  0  0
   -3.9933    2.2195    1.1195 O   0  0  0  0  0  0  0  0  0  0  0  0
   -3.4622    1.6166   -1.5087 N   0  0  0  0  0  0  0  0  0  0  0  0
   -1.3215   -0.2001   -1.0079 N   0  0  1  0  0  0  0  0  0  0  0  0
    0.9089   -0.3877   -0.2955 N   0  0  0  0  0  0  0  0  0  0  0  0
    4.0425   -1.0238    1.2998 N   0  0  0  0  0  0  0  0  0  0  0  0
    5.0966   -0.2299    1.5830 N   0  0  0  0  0  0  0  0  0  0  0  0
    5.6305    1.9948    0.7778 N   0  0  0  0  0  0  0  0  0  0  0  0
   -3.6251    0.5437   -0.5212 C   0  0  2  0  0  0  0  0  0  0  0  0
   -4.5681    1.0191    0.5827 C   0  0  1  0  0  0  0  0  0  0  0  0
   -2.2661    0.1361    0.0672 C   0  0  0  0  0  0  0  0  0  0  0  0
   -4.7395   -0.0042    1.7441 C   0  0  0  0  0  0  0  0  0  0  0  0
   -2.5938    1.1775   -2.5989 C   0  0  0  0  0  0  0  0  0  0  0  0
   -1.2086    0.7868   -2.0864 C   0  0  0  0  0  0  0  0  0  0  0  0
   -5.9162    1.4122   -0.0359 C   0  0  0  0  0  0  0  0  0  0  0  0
   -5.2755   -1.3679    1.2966 C   0  0  0  0  0  0  0  0  0  0  0  0
   -5.6152    0.5329    2.8855 C   0  0  0  0  0  0  0  0  0  0  0  0
   -0.2248   -1.0092   -0.6906 C   0  0  0  0  0  0  0  0  0  0  0  0
   -0.3590   -2.3841   -0.7968 C   0  0  0  0  0  0  0  0  0  0  0  0
    1.9570   -1.1861    0.0073 C   0  0  0  0  0  0  0  0  0  0  0  0
    0.7409   -3.1720   -0.4768 C   0  0  0  0  0  0  0  0  0  0  0  0
    1.9249   -2.5693   -0.0661 C   0  0  0  0  0  0  0  0  0  0  0  0
    3.1416   -0.4828    0.4234 C   0  0  0  0  0  0  0  0  0  0  0  0
    3.6494    0.7497    0.1175 C   0  0  0  0  0  0  0  0  0  0  0  0
    4.8650    0.8701    0.8575 C   0  0  0  0  0  0  0  0  0  0  0  0
    3.0783    1.6761   -0.7418 C   0  0  0  0  0  0  0  0  0  0  0  0
    3.8785    2.8216   -0.8096 C   0  0  0  0  0  0  0  0  0  0  0  0
    5.0809    2.9236   -0.0687 C   0  0  0  0  0  0  0  0  0  0  0  0
   -4.0681   -0.3216   -1.0317 H   0  0  0  0  0  0  0  0  0  0  0  0
   -1.8310    0.9370    0.6784 H   0  0  0  0  0  0  0  0  0  0  0  0
   -2.3828   -0.7414    0.7114 H   0  0  0  0  0  0  0  0  0  0  0  0
   -3.7607   -0.1628    2.2133 H   0  0  0  0  0  0  0  0  0  0  0  0
   -3.0319    2.4263   -1.0624 H   0  0  0  0  0  0  0  0  0  0  0  0
   -2.4982    1.9874   -3.3302 H   0  0  0  0  0  0  0  0  0  0  0  0
   -3.0577    0.3332   -3.1238 H   0  0  0  0  0  0  0  0  0  0  0  0
   -0.6744    1.6721   -1.7189 H   0  0  0  0  0  0  0  0  0  0  0  0
   -0.6279    0.3725   -2.9196 H   0  0  0  0  0  0  0  0  0  0  0  0
   -5.8200    2.2121   -0.7791 H   0  0  0  0  0  0  0  0  0  0  0  0
   -6.4086    0.5637   -0.5208 H   0  0  0  0  0  0  0  0  0  0  0  0
   -6.5971    1.8223    0.7172 H   0  0  0  0  0  0  0  0  0  0  0  0
   -6.2785   -1.2891    0.8664 H   0  0  0  0  0  0  0  0  0  0  0  0
   -5.3389   -2.0515    2.1509 H   0  0  0  0  0  0  0  0  0  0  0  0
   -4.6212   -1.8405    0.5592 H   0  0  0  0  0  0  0  0  0  0  0  0
   -5.5732   -0.1445    3.7462 H   0  0  0  0  0  0  0  0  0  0  0  0
   -5.2734    1.5144    3.2284 H   0  0  0  0  0  0  0  0  0  0  0  0
   -6.6662    0.6151    2.5918 H   0  0  0  0  0  0  0  0  0  0  0  0
   -4.1221    2.9423    0.4831 H   0  0  0  0  0  0  0  0  0  0  0  0
    0.6921   -4.2557   -0.5417 H   0  0  0  0  0  0  0  0  0  0  0  0
    4.0038   -1.9301    1.7497 H   0  0  0  0  0  0  0  0  0  0  0  0
    2.1647    1.5761   -1.3082 H   0  0  0  0  0  0  0  0  0  0  0  0
    3.5755    3.6503   -1.4447 H   0  0  0  0  0  0  0  0  0  0  0  0
    5.6711    3.8344   -0.1538 H   0  0  0  0  0  0  0  0  0  0  0  0
  1 20  1  0  0  0  0
  2 23  1  0  0  0  0
  3 11  1  0  0  0  0
  3 48  1  0  0  0  0
  4 10  1  0  0  0  0
  4 14  1  0  0  0  0
  4 34  1  0  0  0  0
  5 12  1  0  0  0  0
  5 15  1  0  0  0  0
  5 19  1  0  0  0  0
  6 19  1  0  0  0  0
  6 21  2  0  0  0  0
  7  8  1  0  0  0  0
  7 24  1  0  0  0  0
  7 50  1  0  0  0  0
  8 26  2  0  0  0  0
  9 26  1  0  0  0  0
  9 29  2  0  0  0  0
 10 11  1  0  0  0  0
 10 12  1  0  0  0  0
 10 30  1  0  0  0  0
 11 13  1  0  0  0  0
 11 16  1  0  0  0  0
 12 31  1  0  0  0  0
 12 32  1  0  0  0  0
 13 17  1  0  0  0  0
 13 18  1  0  0  0  0
 13 33  1  0  0  0  0
 14 15  1  0  0  0  0
 14 35  1  0  0  0  0
 14 36  1  0  0  0  0
 15 37  1  0  0  0  0
 15 38  1  0  0  0  0
 16 39  1  0  0  0  0
 16 40  1  0  0  0  0
 16 41  1  0  0  0  0
 17 42  1  0  0  0  0
 17 43  1  0  0  0  0
 17 44  1  0  0  0  0
 18 45  1  0  0  0  0
 18 46  1  0  0  0  0
 18 47  1  0  0  0  0
 19 20  2  0  0  0  0
 20 22  1  0  0  0  0
 21 23  1  0  0  0  0
 21 24  1  0  0  0  0
 22 23  2  0  0  0  0
 22 49  1  0  0  0  0
 24 25  2  0  0  0  0
 25 26  1  0  0  0  0
 25 27  1  0  0  0  0
 27 28  2  0  0  0  0
 27 51  1  0  0  0  0
 28 29  1  0  0  0  0
 28 52  1  0  0  0  0
 29 53  1  0  0  0  0
M  END
> <PUBCHEM_COMPOUND_CID>
53354074

> <PUBCHEM_CONFORMER_RMSD>
0.8

> <PUBCHEM_CONFORMER_DIVERSEORDER>
1
51
16
102
18
75
110
73
47
80
115
83
3
59
56
123
20
25
30
78
62
14
54
97
38
33
39
87
60
13
43
92
67
9
23
52
112
6
45
86
64
63
104
8
11
89
57
93
22
69
90
119
66
29
88
49
76
27
21
5
99
58
111
106
61
118
103
31
28
15
98
53
50
70
42
40
116
12
72
7
79
120
74
17
94
46
65
26
96
101
32
105
82
91
41
84
55
95
10
100
108
124
68
35
122
117
77
4
19
44
107
113
2
37
24
121
81
114
34
85
109
48
36
71

> <PUBCHEM_MMFF94_PARTIAL_CHARGES>
31
1 -0.18
10 0.27
11 0.28
12 0.37
14 0.27
15 0.37
19 0.41
2 -0.19
20 0.18
21 0.36
22 -0.15
23 0.19
24 -0.2
26 0.54
27 -0.15
28 -0.15
29 0.16
3 -0.68
34 0.36
4 -0.9
48 0.4
49 0.15
5 -0.84
50 0.27
51 0.15
52 0.15
53 0.15
6 -0.62
7 0.3
8 -0.71
9 -0.57

> <PUBCHEM_EFFECTIVE_ROTOR_COUNT>
5.2

> <PUBCHEM_PHARMACOPHORE_FEATURES>
14
1 3 acceptor
1 3 donor
1 4 cation
1 4 donor
1 5 cation
1 6 acceptor
1 7 donor
1 9 acceptor
3 13 17 18 hydrophobe
3 8 9 26 cation
5 7 8 24 25 26 rings
6 4 5 10 12 14 15 rings
6 6 19 20 21 22 23 rings
6 9 25 26 27 28 29 rings

> <PUBCHEM_HEAVY_ATOM_COUNT>
29

> <PUBCHEM_ATOM_DEF_STEREO_COUNT>
2

> <PUBCHEM_ATOM_UDEF_STEREO_COUNT>
0

> <PUBCHEM_BOND_DEF_STEREO_COUNT>
0

> <PUBCHEM_BOND_UDEF_STEREO_COUNT>
0

> <PUBCHEM_ISOTOPIC_ATOM_COUNT>
0

> <PUBCHEM_COMPONENT_COUNT>
1

> <PUBCHEM_CACTVS_TAUTO_COUNT>
4

> <PUBCHEM_CONFORMER_ID>
032E1E5A00000001

> <PUBCHEM_MMFF94_ENERGY>
93.8372

> <PUBCHEM_FEATURE_SELFOVERLAP>
71.204

> <PUBCHEM_SHAPE_FINGERPRINT>
10319926 262 17023456439620305520
10622 236 12541564599583242577
10721379 63 15625122844825199588
11049842 53 16056032403353268703
11135609 201 18127968826921401720
12390115 104 18271812388185351438
12422481 6 18040718082236407565
12788726 201 17836646697028942046
13075007 39 17821733814689170708
13583140 156 17242150397432904814
13782708 43 13624347068149153088
13828863 39 18343028825889723689
14251764 75 18265617765787695716
14341114 328 18131077039018856633
14765038 42 18268434714641432676
14790565 3 18267306623915211894
14848178 5 13984664775990320585
14950920 106 17821723910125393217
14955137 171 18050855420790149574
15119646 57 17416405591628678504
151778 21 18408882962512885492
15183329 4 11815908837894092401
15188451 53 14996280357673248929
15342168 16 18342173358308413221
16126227 98 18122352543244761588
16992727 255 10806565946947036539
17913733 40 18413110562861381699
18222031 100 12179842805836968298
18785283 64 18339927000567172526
19315092 285 12757143628180005796
19377110 9 18343020025697023331
1979834 28 18188221939305711141
20739085 24 18053102826819888662
21033650 10 15769772480940011055
21302155 148 18340492261048728171
21365058 113 17626972784523386534
21458453 9 17823720722146728545
21756936 100 17632577179683051051
21859007 373 16951962848652464181
22122407 14 18057890147982575257
23559900 14 18193004712081783807
283562 15 17978776128329450990
3004659 81 11311784960083033220
312425 54 16732981994786374745
3178227 256 18334857170211199874
3459 110 17968093144540999945
350125 39 18194671794588498710
38570 142 17632311054956314612
392239 28 18411990186857650809
444735 79 17970077836207467883
469060 322 18043241534695430847
474 4 18341605984628406030
50009960 94 16591987418958976291
5081480 168 17843971330224051366
5104073 3 18188498973787021217
5252454 2 18191021408022699508
57527293 21 17749115478342452407
59682541 52 9511171899113684337
59755656 520 18130513010928547230
6034566 193 18339642355466117613
633830 44 17774442668395427935
7808743 9 18272088369909193154
7970288 3 7925637713041340520
960060 61 10375869680066868456

> <PUBCHEM_SHAPE_MULTIPOLES>
555.65
13.83
3.57
1.97
1.89
2.04
0.08
-9.67
8.17
-2.66
-0.86
2.73
-0.55
-0.52

> <PUBCHEM_SHAPE_SELFOVERLAP>
1197.52

> <PUBCHEM_SHAPE_VOLUME>
311.5

> <PUBCHEM_COORDINATE_TYPE>
2
5
10

$$$$
