49830699
  -OEChem-10052120443D

 36 38  0     0  0  0  0  0  0999 V2000
   -6.1718   -2.6489    0.0007 F   0  0  0  0  0  0  0  0  0  0  0  0
   -6.9180   -0.9177    1.0843 F   0  0  0  0  0  0  0  0  0  0  0  0
   -6.9173   -0.9185   -1.0845 F   0  0  0  0  0  0  0  0  0  0  0  0
    1.9159    1.7892   -0.0001 O   0  0  0  0  0  0  0  0  0  0  0  0
    0.2096    0.1851   -0.0004 N   0  0  0  0  0  0  0  0  0  0  0  0
   -3.2128    2.5879   -0.0001 N   0  0  0  0  0  0  0  0  0  0  0  0
    2.4120   -0.4961   -0.0005 N   0  0  0  0  0  0  0  0  0  0  0  0
    4.4799    0.6777    0.0004 N   0  0  0  0  0  0  0  0  0  0  0  0
    9.1418   -0.5417    0.0014 N   0  0  0  0  0  0  0  0  0  0  0  0
   -2.2317    0.3869    0.0000 C   0  0  0  0  0  0  0  0  0  0  0  0
   -3.3487    1.2485   -0.0001 C   0  0  0  0  0  0  0  0  0  0  0  0
   -0.9542    0.9630   -0.0003 C   0  0  0  0  0  0  0  0  0  0  0  0
   -4.7956   -0.7101    0.0002 C   0  0  0  0  0  0  0  0  0  0  0  0
   -2.4105   -1.0069    0.0004 C   0  0  0  0  0  0  0  0  0  0  0  0
   -4.6176    0.6756   -0.0002 C   0  0  0  0  0  0  0  0  0  0  0  0
   -3.6910   -1.5526    0.0007 C   0  0  0  0  0  0  0  0  0  0  0  0
   -0.8109    2.3430   -0.0001 C   0  0  0  0  0  0  0  0  0  0  0  0
   -6.1722   -1.2840    0.0002 C   0  0  0  0  0  0  0  0  0  0  0  0
   -1.9622    3.1040    0.0001 C   0  0  0  0  0  0  0  0  0  0  0  0
    1.5556    0.6165   -0.0003 C   0  0  0  0  0  0  0  0  0  0  0  0
    3.8270   -0.5061   -0.0005 C   0  0  0  0  0  0  0  0  0  0  0  0
    4.4577   -1.7397   -0.0012 C   0  0  0  0  0  0  0  0  0  0  0  0
    5.8480   -1.7599   -0.0009 C   0  0  0  0  0  0  0  0  0  0  0  0
    6.5552   -0.5626   -0.0002 C   0  0  0  0  0  0  0  0  0  0  0  0
    5.8307    0.6183    0.0005 C   0  0  0  0  0  0  0  0  0  0  0  0
    7.9814   -0.5511    0.0007 C   0  0  0  0  0  0  0  0  0  0  0  0
   -1.5850   -1.7109    0.0006 H   0  0  0  0  0  0  0  0  0  0  0  0
   -5.4936    1.3229   -0.0004 H   0  0  0  0  0  0  0  0  0  0  0  0
   -3.8044   -2.6329    0.0011 H   0  0  0  0  0  0  0  0  0  0  0  0
    0.1147    2.8937   -0.0001 H   0  0  0  0  0  0  0  0  0  0  0  0
    0.0942   -0.8211   -0.0006 H   0  0  0  0  0  0  0  0  0  0  0  0
   -1.9140    4.1881    0.0003 H   0  0  0  0  0  0  0  0  0  0  0  0
    1.9686   -1.4112   -0.0009 H   0  0  0  0  0  0  0  0  0  0  0  0
    3.9009   -2.6711   -0.0018 H   0  0  0  0  0  0  0  0  0  0  0  0
    6.3666   -2.7154   -0.0013 H   0  0  0  0  0  0  0  0  0  0  0  0
    6.3229    1.5867    0.0013 H   0  0  0  0  0  0  0  0  0  0  0  0
  1 18  1  0  0  0  0
  2 18  1  0  0  0  0
  3 18  1  0  0  0  0
  4 20  2  0  0  0  0
  5 12  1  0  0  0  0
  5 20  1  0  0  0  0
  5 31  1  0  0  0  0
  6 11  2  0  0  0  0
  6 19  1  0  0  0  0
  7 20  1  0  0  0  0
  7 21  1  0  0  0  0
  7 33  1  0  0  0  0
  8 21  2  0  0  0  0
  8 25  1  0  0  0  0
  9 26  3  0  0  0  0
 10 11  1  0  0  0  0
 10 12  2  0  0  0  0
 10 14  1  0  0  0  0
 11 15  1  0  0  0  0
 12 17  1  0  0  0  0
 13 15  2  0  0  0  0
 13 16  1  0  0  0  0
 13 18  1  0  0  0  0
 14 16  2  0  0  0  0
 14 27  1  0  0  0  0
 15 28  1  0  0  0  0
 16 29  1  0  0  0  0
 17 19  2  0  0  0  0
 17 30  1  0  0  0  0
 19 32  1  0  0  0  0
 21 22  1  0  0  0  0
 22 23  2  0  0  0  0
 22 34  1  0  0  0  0
 23 24  1  0  0  0  0
 23 35  1  0  0  0  0
 24 25  2  0  0  0  0
 24 26  1  0  0  0  0
 25 36  1  0  0  0  0
M  END
> <PUBCHEM_COMPOUND_CID>
49830699

> <PUBCHEM_CONFORMER_RMSD>
0.8

> <PUBCHEM_CONFORMER_DIVERSEORDER>
1
22
5
8
16
13
6
7
10
15
20
9
14
3
21
2
12
18
19
17
4
11

> <PUBCHEM_MMFF94_PARTIAL_CHARGES>
35
1 -0.34
11 0.31
12 0.12
13 -0.14
14 -0.15
15 -0.15
16 -0.15
17 -0.15
18 1.16
19 0.16
2 -0.34
20 0.69
21 0.43
22 -0.15
23 -0.15
24 0.07
25 0.16
26 0.48
27 0.15
28 0.15
29 0.15
3 -0.34
30 0.15
31 0.37
32 0.15
33 0.37
34 0.15
35 0.15
36 0.15
4 -0.57
5 -0.55
6 -0.62
7 -0.55
8 -0.62
9 -0.56

> <PUBCHEM_EFFECTIVE_ROTOR_COUNT>
5

> <PUBCHEM_PHARMACOPHORE_FEATURES>
8
1 4 acceptor
1 5 donor
1 6 acceptor
1 7 donor
1 9 acceptor
6 10 11 13 14 15 16 rings
6 6 10 11 12 17 19 rings
6 8 21 22 23 24 25 rings

> <PUBCHEM_HEAVY_ATOM_COUNT>
26

> <PUBCHEM_ATOM_DEF_STEREO_COUNT>
0

> <PUBCHEM_ATOM_UDEF_STEREO_COUNT>
0

> <PUBCHEM_BOND_DEF_STEREO_COUNT>
0

> <PUBCHEM_BOND_UDEF_STEREO_COUNT>
0

> <PUBCHEM_ISOTOPIC_ATOM_COUNT>
0

> <PUBCHEM_COMPONENT_COUNT>
1

> <PUBCHEM_CACTVS_TAUTO_COUNT>
11

> <PUBCHEM_CONFORMER_ID>
02F85B2B00000001

> <PUBCHEM_MMFF94_ENERGY>
71.1543

> <PUBCHEM_FEATURE_SELFOVERLAP>
40.678

> <PUBCHEM_SHAPE_FINGERPRINT>
10299344 5 18411704287932730026
10411042 1 18338517564652678693
10595046 47 18335140856900641784
11315181 36 18260550008729788773
11524674 6 16486972907953485863
12166972 35 17749391494052181804
12236239 1 18040718047829365140
12516196 113 18272650143347608496
12760667 363 18411982477459808891
13288520 33 18410292519561318613
13383668 251 16843574263147421192
1361 4 18410010992892909682
13631057 29 18411135818598180496
13673619 4 18130786771901576808
13685833 64 18410857676357829307
14251764 18 18413672413741187270
14347332 77 18407759222573724717
14556957 393 16226341317267257830
15183329 4 18186517700857239546
15419008 47 17917422121480003288
16087824 20 18337389315847871853
17492 89 18196091032889726134
17780758 139 17917716777869165177
17844677 252 18412550894891274008
18006028 8 18342455958988600277
18335252 98 18201441360034645302
18681886 176 18408880750910585912
19427546 20 18261109613500143053
21049683 271 18341614846059405424
21130935 74 18268144255141369226
21150785 3 16226048903172366666
21236236 1 18340769252259157153
21267235 1 18408326609713256609
21315763 28 18409166589885000020
21623969 137 17489309659833865046
21792934 111 18341609335473550225
21792961 116 18040712568416316527
22224240 67 16558747927703541422
22896161 15 18410575081196254180
2297311 6 18413109450512616953
23522609 53 18123785081745876185
23559900 14 18411128156403469769
3004659 81 18040430022842814176
335352 9 18409724046749622317
3383291 50 18260269685147699419
34797466 226 17775291582315509140
4073 2 18186528687947981250
4214541 1 18338798910216147392
4325135 7 18408041814964326542
5104073 3 18200870682670077160
59682541 35 18201714085967477218
5969126 39 18341323436327012365
6138700 20 18409166632581900659
636775 8 18335430083877097134
67856867 119 18334019415101872236
999808 66 18114191851989386579

> <PUBCHEM_SHAPE_MULTIPOLES>
482.47
22.55
2.51
0.65
26.71
1.11
0
-12.97
0.01
-3.26
0
-0.42
-0.06
0

> <PUBCHEM_SHAPE_SELFOVERLAP>
1062.961

> <PUBCHEM_SHAPE_VOLUME>
258

> <PUBCHEM_COORDINATE_TYPE>
2
5
10

$$$$
