10066030
  -OEChem-10062122043D

 43 46  0     0  0  0  0  0  0999 V2000
   -0.7219    4.9452    0.5089 O   0  0  0  0  0  0  0  0  0  0  0  0
   -4.0154    2.1974   -1.2036 O   0  0  0  0  0  0  0  0  0  0  0  0
    1.7542    0.1626    1.0223 N   0  0  0  0  0  0  0  0  0  0  0  0
   -0.2713   -1.5271   -0.0334 N   0  0  0  0  0  0  0  0  0  0  0  0
   -2.6049    3.8943   -0.4112 N   0  0  0  0  0  0  0  0  0  0  0  0
    0.5324    0.7112    0.5635 C   0  0  0  0  0  0  0  0  0  0  0  0
   -0.4728   -0.1276    0.0395 C   0  0  0  0  0  0  0  0  0  0  0  0
   -0.8560    2.5929    0.1855 C   0  0  0  0  0  0  0  0  0  0  0  0
   -1.8457    1.7670   -0.3303 C   0  0  0  0  0  0  0  0  0  0  0  0
    0.3466    2.0944    0.6415 C   0  0  0  0  0  0  0  0  0  0  0  0
   -1.6843    0.3999   -0.4169 C   0  0  0  0  0  0  0  0  0  0  0  0
   -1.3449    3.9703    0.1342 C   0  0  0  0  0  0  0  0  0  0  0  0
   -2.9788    2.6070   -0.7171 C   0  0  0  0  0  0  0  0  0  0  0  0
    2.9272   -0.0447    0.2491 C   0  0  0  0  0  0  0  0  0  0  0  0
    1.9388    0.0186    2.4731 C   0  0  0  0  0  0  0  0  0  0  0  0
   -1.1548   -2.6173    0.0317 C   0  0  0  0  0  0  0  0  0  0  0  0
    2.8169   -0.3075   -1.1115 C   0  0  0  0  0  0  0  0  0  0  0  0
    4.1738    0.0167    0.8611 C   0  0  0  0  0  0  0  0  0  0  0  0
   -0.8638   -3.8004   -0.6534 C   0  0  0  0  0  0  0  0  0  0  0  0
   -2.3306   -2.5254    0.7820 C   0  0  0  0  0  0  0  0  0  0  0  0
    3.9691   -0.5118   -1.8707 C   0  0  0  0  0  0  0  0  0  0  0  0
    5.3260   -0.1874    0.1017 C   0  0  0  0  0  0  0  0  0  0  0  0
    5.2236   -0.4517   -1.2640 C   0  0  0  0  0  0  0  0  0  0  0  0
   -1.7416   -4.8826   -0.5891 C   0  0  0  0  0  0  0  0  0  0  0  0
   -3.2082   -3.6077    0.8464 C   0  0  0  0  0  0  0  0  0  0  0  0
   -2.9136   -4.7863    0.1608 C   0  0  0  0  0  0  0  0  0  0  0  0
    1.1123    2.7502    1.0416 H   0  0  0  0  0  0  0  0  0  0  0  0
   -2.4662   -0.2163   -0.8456 H   0  0  0  0  0  0  0  0  0  0  0  0
    0.7027   -1.7992   -0.1202 H   0  0  0  0  0  0  0  0  0  0  0  0
   -3.1960    4.7025   -0.5709 H   0  0  0  0  0  0  0  0  0  0  0  0
    2.4215    0.9036    2.9034 H   0  0  0  0  0  0  0  0  0  0  0  0
    2.5007   -0.8870    2.7310 H   0  0  0  0  0  0  0  0  0  0  0  0
    0.9663   -0.0868    2.9711 H   0  0  0  0  0  0  0  0  0  0  0  0
    1.8591   -0.3566   -1.6194 H   0  0  0  0  0  0  0  0  0  0  0  0
    4.3178    0.2409    1.9127 H   0  0  0  0  0  0  0  0  0  0  0  0
    0.0461   -3.8880   -1.2421 H   0  0  0  0  0  0  0  0  0  0  0  0
   -2.5754   -1.6293    1.3459 H   0  0  0  0  0  0  0  0  0  0  0  0
    3.8899   -0.7161   -2.9344 H   0  0  0  0  0  0  0  0  0  0  0  0
    6.3037   -0.1354    0.5720 H   0  0  0  0  0  0  0  0  0  0  0  0
    6.1208   -0.6091   -1.8554 H   0  0  0  0  0  0  0  0  0  0  0  0
   -1.5122   -5.8003   -1.1227 H   0  0  0  0  0  0  0  0  0  0  0  0
   -4.1183   -3.5350    1.4346 H   0  0  0  0  0  0  0  0  0  0  0  0
   -3.5963   -5.6294    0.2120 H   0  0  0  0  0  0  0  0  0  0  0  0
  1 12  2  0  0  0  0
  2 13  2  0  0  0  0
  3  6  1  0  0  0  0
  3 14  1  0  0  0  0
  3 15  1  0  0  0  0
  4  7  1  0  0  0  0
  4 16  1  0  0  0  0
  4 29  1  0  0  0  0
  5 12  1  0  0  0  0
  5 13  1  0  0  0  0
  5 30  1  0  0  0  0
  6  7  2  0  0  0  0
  6 10  1  0  0  0  0
  7 11  1  0  0  0  0
  8  9  1  0  0  0  0
  8 10  2  0  0  0  0
  8 12  1  0  0  0  0
  9 11  2  0  0  0  0
  9 13  1  0  0  0  0
 10 27  1  0  0  0  0
 11 28  1  0  0  0  0
 14 17  2  0  0  0  0
 14 18  1  0  0  0  0
 15 31  1  0  0  0  0
 15 32  1  0  0  0  0
 15 33  1  0  0  0  0
 16 19  2  0  0  0  0
 16 20  1  0  0  0  0
 17 21  1  0  0  0  0
 17 34  1  0  0  0  0
 18 22  2  0  0  0  0
 18 35  1  0  0  0  0
 19 24  1  0  0  0  0
 19 36  1  0  0  0  0
 20 25  2  0  0  0  0
 20 37  1  0  0  0  0
 21 23  2  0  0  0  0
 21 38  1  0  0  0  0
 22 23  1  0  0  0  0
 22 39  1  0  0  0  0
 23 40  1  0  0  0  0
 24 26  2  0  0  0  0
 24 41  1  0  0  0  0
 25 26  1  0  0  0  0
 25 42  1  0  0  0  0
 26 43  1  0  0  0  0
M  END
> <PUBCHEM_COMPOUND_CID>
10066030

> <PUBCHEM_CONFORMER_RMSD>
0.8

> <PUBCHEM_CONFORMER_DIVERSEORDER>
5
16
4
12
7
11
13
14
10
9
6
2
15
1
8
3

> <PUBCHEM_MMFF94_PARTIAL_CHARGES>
40
1 -0.57
10 -0.15
11 -0.15
12 0.54
13 0.54
14 0.1
15 0.37
16 0.1
17 -0.15
18 -0.15
19 -0.15
2 -0.57
20 -0.15
21 -0.15
22 -0.15
23 -0.15
24 -0.15
25 -0.15
26 -0.15
27 0.15
28 0.15
29 0.4
3 -0.57
30 0.37
34 0.15
35 0.15
36 0.15
37 0.15
38 0.15
39 0.15
4 -0.6
40 0.15
41 0.15
42 0.15
43 0.15
5 -0.49
6 0.1
7 0.1
8 0.09
9 0.09

> <PUBCHEM_EFFECTIVE_ROTOR_COUNT>
4.2

> <PUBCHEM_PHARMACOPHORE_FEATURES>
10
1 1 acceptor
1 2 acceptor
1 3 cation
1 4 cation
1 4 donor
1 5 donor
5 5 8 9 12 13 rings
6 14 17 18 21 22 23 rings
6 16 19 20 24 25 26 rings
6 6 7 8 9 10 11 rings

> <PUBCHEM_HEAVY_ATOM_COUNT>
26

> <PUBCHEM_ATOM_DEF_STEREO_COUNT>
0

> <PUBCHEM_ATOM_UDEF_STEREO_COUNT>
0

> <PUBCHEM_BOND_DEF_STEREO_COUNT>
0

> <PUBCHEM_BOND_UDEF_STEREO_COUNT>
0

> <PUBCHEM_ISOTOPIC_ATOM_COUNT>
0

> <PUBCHEM_COMPONENT_COUNT>
1

> <PUBCHEM_CACTVS_TAUTO_COUNT>
8

> <PUBCHEM_CONFORMER_ID>
0099986E00000005

> <PUBCHEM_MMFF94_ENERGY>
119.9798

> <PUBCHEM_FEATURE_SELFOVERLAP>
50.842

> <PUBCHEM_SHAPE_FINGERPRINT>
10190108 129 17910143242967020433
10411042 1 18121778602111125898
10554248 39 17406549690538217951
107951 10 18126572214919618948
10815517 723 18272098240498738275
121448 382 18198901409699364028
12160290 23 18116969196432429531
12553582 1 18120648291252011834
12788726 201 18188504587098754034
13690498 29 18269295589633438510
138480 1 16537357684498437270
13955234 65 17258505439775863441
14251757 5 18408608075730943071
15042514 8 18409733979774659723
15664445 248 17475531937108093708
15775530 1 17915440895883824512
15927050 60 18053379891419126485
1813 80 18051139390826029570
20505436 4 17750244599796507792
20587220 46 14897437809694286007
20600515 1 17913802610357037523
20739085 24 16823043322966787977
20775438 99 17911483753277138949
21033650 10 17485943943257176660
22849339 104 18339940229092298790
22849341 161 17976562803101575635
22907989 373 18336277802745841700
23366157 5 17183902467850667617
23557571 272 18342167908512164888
23559900 14 17409376517019552627
23598288 3 18114761389984529570
283562 15 18126841604154660201
3091708 16 9274024871183670371
4409770 3 18408608050072071335
458136 41 17763469413443441857
6700243 42 17768856162121970164
79837 15 18265621969985029058
9841814 1 17540797817361047434
9981440 41 18048598122911260937

> <PUBCHEM_SHAPE_MULTIPOLES>
508.39
7.8
6.98
1.37
5.1
7.13
0.29
-10.79
-1.06
-7.18
-1.28
1.09
-0.42
1.61

> <PUBCHEM_SHAPE_SELFOVERLAP>
1133.031

> <PUBCHEM_SHAPE_VOLUME>
271.5

> <PUBCHEM_COORDINATE_TYPE>
2
5
10

$$$$
