49830662
  -OEChem-10052120443D

 63 66  0     0  0  0  0  0  0999 V2000
    2.6685   -3.3735    0.7733 O   0  0  0  0  0  0  0  0  0  0  0  0
   -2.8699    3.0521   -1.1599 O   0  0  0  0  0  0  0  0  0  0  0  0
   -0.3687    3.5854   -2.3153 O   0  0  0  0  0  0  0  0  0  0  0  0
    5.8258   -4.1561   -1.2738 O   0  0  0  0  0  0  0  0  0  0  0  0
    4.4696   -2.3555   -1.5659 O   0  0  0  0  0  0  0  0  0  0  0  0
   -2.3606   -1.1399    0.0781 N   0  0  0  0  0  0  0  0  0  0  0  0
   -3.4558   -1.8878    0.2954 N   0  0  0  0  0  0  0  0  0  0  0  0
   -1.6427    1.1083   -0.5842 N   0  0  0  0  0  0  0  0  0  0  0  0
   -5.8512   -1.4967    0.1697 C   0  0  0  0  0  0  0  0  0  0  0  0
   -4.4568   -1.0416    0.0387 C   0  0  0  0  0  0  0  0  0  0  0  0
   -6.6430   -0.6574    1.2302 C   0  0  0  0  0  0  0  0  0  0  0  0
   -6.0503   -2.9922    0.6148 C   0  0  0  0  0  0  0  0  0  0  0  0
   -6.6347   -1.3761   -1.1822 C   0  0  0  0  0  0  0  0  0  0  0  0
   -4.0044    0.2366   -0.3397 C   0  0  0  0  0  0  0  0  0  0  0  0
   -2.6347    0.1406   -0.3041 C   0  0  0  0  0  0  0  0  0  0  0  0
   -1.0953   -1.7028    0.2540 C   0  0  0  0  0  0  0  0  0  0  0  0
   -0.2148   -1.1609    1.1904 C   0  0  0  0  0  0  0  0  0  0  0  0
   -0.7110   -2.8064   -0.5076 C   0  0  0  0  0  0  0  0  0  0  0  0
   -1.8469    2.4167   -0.9673 C   0  0  0  0  0  0  0  0  0  0  0  0
    1.0500   -1.7224    1.3650 C   0  0  0  0  0  0  0  0  0  0  0  0
    0.5538   -3.3679   -0.3332 C   0  0  0  0  0  0  0  0  0  0  0  0
    0.4117    3.3096   -0.0838 C   0  0  0  0  0  0  0  0  0  0  0  0
    1.4343   -2.8259    0.6032 C   0  0  0  0  0  0  0  0  0  0  0  0
   -0.5431    3.1449   -1.1764 C   0  0  0  0  0  0  0  0  0  0  0  0
    1.7208    2.8044   -0.1438 C   0  0  0  0  0  0  0  0  0  0  0  0
    2.5901    3.0027    0.9553 C   0  0  0  0  0  0  0  0  0  0  0  0
   -0.0338    4.0001    1.0436 C   0  0  0  0  0  0  0  0  0  0  0  0
    2.1861    2.1070   -1.2704 C   0  0  0  0  0  0  0  0  0  0  0  0
    2.1249    3.7001    2.0819 C   0  0  0  0  0  0  0  0  0  0  0  0
    0.8212    4.1951    2.1244 C   0  0  0  0  0  0  0  0  0  0  0  0
    3.8992    2.4975    0.8953 C   0  0  0  0  0  0  0  0  0  0  0  0
    3.4898    1.6120   -1.3128 C   0  0  0  0  0  0  0  0  0  0  0  0
    3.7171   -2.4966    1.1830 C   0  0  0  0  0  0  0  0  0  0  0  0
    4.3447    1.8069   -0.2321 C   0  0  0  0  0  0  0  0  0  0  0  0
    5.0458   -3.0332    0.6810 C   0  0  0  0  0  0  0  0  0  0  0  0
    5.0644   -3.1272   -0.8248 C   0  0  0  0  0  0  0  0  0  0  0  0
   -7.6800   -0.9993    1.3227 H   0  0  0  0  0  0  0  0  0  0  0  0
   -6.1696   -0.7336    2.2161 H   0  0  0  0  0  0  0  0  0  0  0  0
   -6.6665    0.4036    0.9560 H   0  0  0  0  0  0  0  0  0  0  0  0
   -5.5906   -3.1717    1.5937 H   0  0  0  0  0  0  0  0  0  0  0  0
   -7.1118   -3.2545    0.6891 H   0  0  0  0  0  0  0  0  0  0  0  0
   -5.5845   -3.6774   -0.1030 H   0  0  0  0  0  0  0  0  0  0  0  0
   -7.6718   -1.7147   -1.0789 H   0  0  0  0  0  0  0  0  0  0  0  0
   -6.6578   -0.3381   -1.5335 H   0  0  0  0  0  0  0  0  0  0  0  0
   -6.1554   -1.9787   -1.9625 H   0  0  0  0  0  0  0  0  0  0  0  0
   -4.5965    1.1020   -0.5993 H   0  0  0  0  0  0  0  0  0  0  0  0
   -0.6832    0.7833   -0.5046 H   0  0  0  0  0  0  0  0  0  0  0  0
   -0.5009   -0.3098    1.8040 H   0  0  0  0  0  0  0  0  0  0  0  0
   -1.3828   -3.2388   -1.2453 H   0  0  0  0  0  0  0  0  0  0  0  0
    1.6937   -1.2870    2.1235 H   0  0  0  0  0  0  0  0  0  0  0  0
    0.8487   -4.2264   -0.9304 H   0  0  0  0  0  0  0  0  0  0  0  0
   -1.0450    4.3964    1.0938 H   0  0  0  0  0  0  0  0  0  0  0  0
    1.5535    1.9179   -2.1334 H   0  0  0  0  0  0  0  0  0  0  0  0
    2.7757    3.8642    2.9382 H   0  0  0  0  0  0  0  0  0  0  0  0
    0.4741    4.7334    3.0015 H   0  0  0  0  0  0  0  0  0  0  0  0
    4.5844    2.6371    1.7288 H   0  0  0  0  0  0  0  0  0  0  0  0
    3.8363    1.0701   -2.1880 H   0  0  0  0  0  0  0  0  0  0  0  0
    3.7352   -2.4494    2.2778 H   0  0  0  0  0  0  0  0  0  0  0  0
    3.5786   -1.4843    0.7806 H   0  0  0  0  0  0  0  0  0  0  0  0
    5.3586    1.4189   -0.2650 H   0  0  0  0  0  0  0  0  0  0  0  0
    5.1968   -4.0411    1.0849 H   0  0  0  0  0  0  0  0  0  0  0  0
    5.8747   -2.3949    1.0011 H   0  0  0  0  0  0  0  0  0  0  0  0
    5.8353   -4.2041   -2.2535 H   0  0  0  0  0  0  0  0  0  0  0  0
  1 23  1  0  0  0  0
  1 33  1  0  0  0  0
  2 19  2  0  0  0  0
  3 24  2  0  0  0  0
  4 36  1  0  0  0  0
  4 63  1  0  0  0  0
  5 36  2  0  0  0  0
  6  7  1  0  0  0  0
  6 15  1  0  0  0  0
  6 16  1  0  0  0  0
  7 10  2  0  0  0  0
  8 15  1  0  0  0  0
  8 19  1  0  0  0  0
  8 47  1  0  0  0  0
  9 10  1  0  0  0  0
  9 11  1  0  0  0  0
  9 12  1  0  0  0  0
  9 13  1  0  0  0  0
 10 14  1  0  0  0  0
 11 37  1  0  0  0  0
 11 38  1  0  0  0  0
 11 39  1  0  0  0  0
 12 40  1  0  0  0  0
 12 41  1  0  0  0  0
 12 42  1  0  0  0  0
 13 43  1  0  0  0  0
 13 44  1  0  0  0  0
 13 45  1  0  0  0  0
 14 15  2  0  0  0  0
 14 46  1  0  0  0  0
 16 17  2  0  0  0  0
 16 18  1  0  0  0  0
 17 20  1  0  0  0  0
 17 48  1  0  0  0  0
 18 21  2  0  0  0  0
 18 49  1  0  0  0  0
 19 24  1  0  0  0  0
 20 23  2  0  0  0  0
 20 50  1  0  0  0  0
 21 23  1  0  0  0  0
 21 51  1  0  0  0  0
 22 24  1  0  0  0  0
 22 25  1  0  0  0  0
 22 27  2  0  0  0  0
 25 26  1  0  0  0  0
 25 28  2  0  0  0  0
 26 29  1  0  0  0  0
 26 31  2  0  0  0  0
 27 30  1  0  0  0  0
 27 52  1  0  0  0  0
 28 32  1  0  0  0  0
 28 53  1  0  0  0  0
 29 30  2  0  0  0  0
 29 54  1  0  0  0  0
 30 55  1  0  0  0  0
 31 34  1  0  0  0  0
 31 56  1  0  0  0  0
 32 34  2  0  0  0  0
 32 57  1  0  0  0  0
 33 35  1  0  0  0  0
 33 58  1  0  0  0  0
 33 59  1  0  0  0  0
 34 60  1  0  0  0  0
 35 36  1  0  0  0  0
 35 61  1  0  0  0  0
 35 62  1  0  0  0  0
M  END
> <PUBCHEM_COMPOUND_CID>
49830662

> <PUBCHEM_CONFORMER_RMSD>
1

> <PUBCHEM_CONFORMER_DIVERSEORDER>
1
11
69
49
13
12
33
20
27
78
76
50
52
40
17
42
64
65
77
23
34
31
24
15
41
54
35
72
2
28
56
71
5
25
82
36
67
62
21
9
59
38
7
51
37
29
75
73
83
58
43
22
47
30
66
57
79
32
81
60
53
55
74
80
18
26
70
39
63
44
19
48
10
14
61
8
68
45
6
16
4
46
3

> <PUBCHEM_MMFF94_PARTIAL_CHARGES>
45
1 -0.36
10 0.11
14 -0.15
15 -0.09
16 -0.02
17 -0.15
18 -0.15
19 0.63
2 -0.57
20 -0.15
21 -0.15
22 0.09
23 0.08
24 0.48
27 -0.15
28 -0.15
29 -0.15
3 -0.57
30 -0.15
31 -0.15
32 -0.15
33 0.28
34 -0.15
35 0.06
36 0.66
4 -0.65
46 0.15
47 0.37
48 0.15
49 0.15
5 -0.57
50 0.15
51 0.15
52 0.15
53 0.15
54 0.15
55 0.15
56 0.15
57 0.15
6 0.59
60 0.15
63 0.5
7 -0.71
8 -0.49
9 0.18

> <PUBCHEM_EFFECTIVE_ROTOR_COUNT>
10

> <PUBCHEM_PHARMACOPHORE_FEATURES>
13
1 1 acceptor
1 2 acceptor
1 3 acceptor
1 4 acceptor
1 5 acceptor
1 7 acceptor
1 8 donor
3 4 5 36 anion
4 9 11 12 13 hydrophobe
5 6 7 10 14 15 rings
6 16 17 18 20 21 23 rings
6 22 25 26 27 29 30 rings
6 25 26 28 31 32 34 rings

> <PUBCHEM_HEAVY_ATOM_COUNT>
36

> <PUBCHEM_ATOM_DEF_STEREO_COUNT>
0

> <PUBCHEM_ATOM_UDEF_STEREO_COUNT>
0

> <PUBCHEM_BOND_DEF_STEREO_COUNT>
0

> <PUBCHEM_BOND_UDEF_STEREO_COUNT>
0

> <PUBCHEM_ISOTOPIC_ATOM_COUNT>
0

> <PUBCHEM_COMPONENT_COUNT>
1

> <PUBCHEM_CACTVS_TAUTO_COUNT>
4

> <PUBCHEM_CONFORMER_ID>
02F85B0600000001

> <PUBCHEM_MMFF94_ENERGY>
118.6959

> <PUBCHEM_FEATURE_SELFOVERLAP>
66.062

> <PUBCHEM_SHAPE_FINGERPRINT>
10049733 16 17693107267131960990
1100329 8 18049717413254103921
11093857 51 17972042706430695524
11578080 2 16227979620364633927
13560911 43 18259985947234315546
14004852 214 17266690277922680849
140371 6 17908977704437139377
14725015 67 18188475909522692546
14955137 171 18341895160439871563
15001296 14 18191302681325441752
150020 26 17973455578671544160
15082195 135 18054206981508466991
15351339 4 18335422340440874594
15876981 60 18047764706272706110
17852330 134 18265027268773732799
17909252 39 18340772546747064578
19311894 1 17691697680023784302
19319366 153 16590818611559030776
20028762 73 17617655896794126351
20764821 26 18194408797257498912
21049683 271 18334867116390183751
3298306 158 18116986892093100703
4017518 198 17836079353392554764
4144715 1 18260552264542603235
513532 50 17988651847775830134
5265222 85 17684945978312531804
6700243 42 17557442993614399406

> <PUBCHEM_SHAPE_MULTIPOLES>
696.57
12.64
7.26
1.66
16.36
0.62
-0.04
-11.75
0.48
-9.48
-0.42
-0.88
1.2
2.05

> <PUBCHEM_SHAPE_SELFOVERLAP>
1515.582

> <PUBCHEM_SHAPE_VOLUME>
378.1

> <PUBCHEM_COORDINATE_TYPE>
2
5
10

$$$$
