9547698
  -OEChem-10062122023D

 69 71  0     1  0  0  0  0  0999 V2000
    2.3423   -3.1090   -1.0191 O   0  0  0  0  0  0  0  0  0  0  0  0
    4.5287    4.0700    0.9912 O   0  0  0  0  0  0  0  0  0  0  0  0
   -1.3968   -1.9965    0.4035 C   0  0  1  0  0  0  0  0  0  0  0  0
   -0.1278   -1.1246    0.5455 C   0  0  1  0  0  0  0  0  0  0  0  0
   -2.4621   -0.8760    0.3193 C   0  0  2  0  0  0  0  0  0  0  0  0
   -0.5085   -0.1057    1.6163 C   0  0  0  0  0  0  0  0  0  0  0  0
   -2.0108    0.1415    1.3914 C   0  0  0  0  0  0  0  0  0  0  0  0
    1.1473   -1.9435    0.7410 C   0  0  1  0  0  0  0  0  0  0  0  0
   -1.2448   -2.8281   -0.8802 C   0  0  0  0  0  0  0  0  0  0  0  0
   -3.9139   -1.3026    0.4829 C   0  0  2  0  0  0  0  0  0  0  0  0
   -1.6582   -2.9325    1.6082 C   0  0  0  0  0  0  0  0  0  0  0  0
    0.0255   -3.6841   -0.8564 C   0  0  0  0  0  0  0  0  0  0  0  0
    1.2673   -2.8972   -0.4555 C   0  0  0  0  0  0  0  0  0  0  0  0
    2.3793   -1.0477    0.8575 C   0  0  0  0  0  0  0  0  0  0  0  0
   -4.3086   -2.3093   -0.6005 C   0  0  0  0  0  0  0  0  0  0  0  0
   -4.8253   -0.1005    0.4274 C   0  0  0  0  0  0  0  0  0  0  0  0
    2.5380   -0.1657   -0.3783 C   0  0  0  0  0  0  0  0  0  0  0  0
   -4.9228    0.7144   -0.6339 C   0  0  0  0  0  0  0  0  0  0  0  0
    3.7404    0.7356   -0.2616 C   0  0  0  0  0  0  0  0  0  0  0  0
   -5.8262    1.9138   -0.6860 C   0  0  0  0  0  0  0  0  0  0  0  0
    4.9810    0.3159   -0.7207 C   0  0  0  0  0  0  0  0  0  0  0  0
    3.5771    1.9891    0.3122 C   0  0  0  0  0  0  0  0  0  0  0  0
   -5.0611    3.2346   -0.8940 C   0  0  0  0  0  0  0  0  0  0  0  0
    6.0804    1.1662   -0.6037 C   0  0  0  0  0  0  0  0  0  0  0  0
    4.6765    2.8394    0.4292 C   0  0  0  0  0  0  0  0  0  0  0  0
    5.1685   -1.0302   -1.3394 C   0  0  0  0  0  0  0  0  0  0  0  0
   -6.0496    4.3979   -1.0029 C   0  0  0  0  0  0  0  0  0  0  0  0
   -4.0641    3.5067    0.2356 C   0  0  0  0  0  0  0  0  0  0  0  0
    5.9282    2.4280   -0.0288 C   0  0  0  0  0  0  0  0  0  0  0  0
   -0.0409   -0.5735   -0.4024 H   0  0  0  0  0  0  0  0  0  0  0  0
   -2.3428   -0.3819   -0.6575 H   0  0  0  0  0  0  0  0  0  0  0  0
   -0.3351   -0.5004    2.6238 H   0  0  0  0  0  0  0  0  0  0  0  0
    0.0645    0.8223    1.5219 H   0  0  0  0  0  0  0  0  0  0  0  0
   -2.1734    1.1663    1.0533 H   0  0  0  0  0  0  0  0  0  0  0  0
   -2.5486    0.0164    2.3382 H   0  0  0  0  0  0  0  0  0  0  0  0
    1.0917   -2.5575    1.6460 H   0  0  0  0  0  0  0  0  0  0  0  0
   -1.2022   -2.1634   -1.7530 H   0  0  0  0  0  0  0  0  0  0  0  0
   -2.0800   -3.5094   -1.0452 H   0  0  0  0  0  0  0  0  0  0  0  0
   -4.0747   -1.7699    1.4621 H   0  0  0  0  0  0  0  0  0  0  0  0
   -1.8353   -2.3781    2.5353 H   0  0  0  0  0  0  0  0  0  0  0  0
   -2.5330   -3.5679    1.4378 H   0  0  0  0  0  0  0  0  0  0  0  0
   -0.8221   -3.6099    1.8019 H   0  0  0  0  0  0  0  0  0  0  0  0
   -0.0774   -4.5237   -0.1611 H   0  0  0  0  0  0  0  0  0  0  0  0
    0.1905   -4.1053   -1.8547 H   0  0  0  0  0  0  0  0  0  0  0  0
    2.3010   -0.4260    1.7584 H   0  0  0  0  0  0  0  0  0  0  0  0
    3.2716   -1.6691    1.0000 H   0  0  0  0  0  0  0  0  0  0  0  0
   -3.9915   -3.3212   -0.3381 H   0  0  0  0  0  0  0  0  0  0  0  0
   -5.4003   -2.3676   -0.6974 H   0  0  0  0  0  0  0  0  0  0  0  0
   -3.9128   -2.0456   -1.5870 H   0  0  0  0  0  0  0  0  0  0  0  0
   -5.4193    0.1033    1.3149 H   0  0  0  0  0  0  0  0  0  0  0  0
    1.6737    0.4968   -0.4994 H   0  0  0  0  0  0  0  0  0  0  0  0
    2.5779   -0.7297   -1.3135 H   0  0  0  0  0  0  0  0  0  0  0  0
   -4.3372    0.5152   -1.5276 H   0  0  0  0  0  0  0  0  0  0  0  0
   -6.5302    1.7680   -1.5150 H   0  0  0  0  0  0  0  0  0  0  0  0
   -6.4323    1.9785    0.2268 H   0  0  0  0  0  0  0  0  0  0  0  0
    2.6054    2.3149    0.6742 H   0  0  0  0  0  0  0  0  0  0  0  0
   -4.5021    3.1796   -1.8374 H   0  0  0  0  0  0  0  0  0  0  0  0
    7.0627    0.8620   -0.9555 H   0  0  0  0  0  0  0  0  0  0  0  0
    4.8835   -1.8274   -0.6475 H   0  0  0  0  0  0  0  0  0  0  0  0
    6.2174   -1.2062   -1.6041 H   0  0  0  0  0  0  0  0  0  0  0  0
    4.5903   -1.1174   -2.2648 H   0  0  0  0  0  0  0  0  0  0  0  0
   -6.7533    4.2342   -1.8259 H   0  0  0  0  0  0  0  0  0  0  0  0
   -5.5242    5.3390   -1.1970 H   0  0  0  0  0  0  0  0  0  0  0  0
   -6.6277    4.5164   -0.0801 H   0  0  0  0  0  0  0  0  0  0  0  0
   -3.2309    2.8039    0.1947 H   0  0  0  0  0  0  0  0  0  0  0  0
   -3.6368    4.5113    0.1437 H   0  0  0  0  0  0  0  0  0  0  0  0
   -4.5400    3.4305    1.2188 H   0  0  0  0  0  0  0  0  0  0  0  0
    6.7927    3.0811    0.0567 H   0  0  0  0  0  0  0  0  0  0  0  0
    5.3899    4.5220    0.9912 H   0  0  0  0  0  0  0  0  0  0  0  0
  1 13  2  0  0  0  0
  2 25  1  0  0  0  0
  2 69  1  0  0  0  0
  3  4  1  0  0  0  0
  3  5  1  0  0  0  0
  3  9  1  0  0  0  0
  3 11  1  0  0  0  0
  4  6  1  0  0  0  0
  4  8  1  0  0  0  0
  4 30  1  0  0  0  0
  5  7  1  0  0  0  0
  5 10  1  0  0  0  0
  5 31  1  0  0  0  0
  6  7  1  0  0  0  0
  6 32  1  0  0  0  0
  6 33  1  0  0  0  0
  7 34  1  0  0  0  0
  7 35  1  0  0  0  0
  8 13  1  0  0  0  0
  8 14  1  0  0  0  0
  8 36  1  0  0  0  0
  9 12  1  0  0  0  0
  9 37  1  0  0  0  0
  9 38  1  0  0  0  0
 10 15  1  0  0  0  0
 10 16  1  0  0  0  0
 10 39  1  0  0  0  0
 11 40  1  0  0  0  0
 11 41  1  0  0  0  0
 11 42  1  0  0  0  0
 12 13  1  0  0  0  0
 12 43  1  0  0  0  0
 12 44  1  0  0  0  0
 14 17  1  0  0  0  0
 14 45  1  0  0  0  0
 14 46  1  0  0  0  0
 15 47  1  0  0  0  0
 15 48  1  0  0  0  0
 15 49  1  0  0  0  0
 16 18  2  0  0  0  0
 16 50  1  0  0  0  0
 17 19  1  0  0  0  0
 17 51  1  0  0  0  0
 17 52  1  0  0  0  0
 18 20  1  0  0  0  0
 18 53  1  0  0  0  0
 19 21  2  0  0  0  0
 19 22  1  0  0  0  0
 20 23  1  0  0  0  0
 20 54  1  0  0  0  0
 20 55  1  0  0  0  0
 21 24  1  0  0  0  0
 21 26  1  0  0  0  0
 22 25  2  0  0  0  0
 22 56  1  0  0  0  0
 23 27  1  0  0  0  0
 23 28  1  0  0  0  0
 23 57  1  0  0  0  0
 24 29  2  0  0  0  0
 24 58  1  0  0  0  0
 25 29  1  0  0  0  0
 26 59  1  0  0  0  0
 26 60  1  0  0  0  0
 26 61  1  0  0  0  0
 27 62  1  0  0  0  0
 27 63  1  0  0  0  0
 27 64  1  0  0  0  0
 28 65  1  0  0  0  0
 28 66  1  0  0  0  0
 28 67  1  0  0  0  0
 29 68  1  0  0  0  0
M  END
> <PUBCHEM_COMPOUND_CID>
9547698

> <PUBCHEM_CONFORMER_RMSD>
1

> <PUBCHEM_CONFORMER_DIVERSEORDER>
6
16
2
19
17
11
22
14
7
15
21
8
18
10
5
20
9
3
12
13
4
1

> <PUBCHEM_MMFF94_PARTIAL_CHARGES>
23
1 -0.57
10 0.14
12 0.06
13 0.45
16 -0.29
17 0.14
18 -0.29
19 -0.14
2 -0.53
20 0.14
21 -0.14
22 -0.15
24 -0.15
25 0.08
26 0.14
29 -0.15
50 0.15
53 0.15
56 0.15
58 0.15
68 0.15
69 0.45
8 0.06

> <PUBCHEM_EFFECTIVE_ROTOR_COUNT>
8.2

> <PUBCHEM_PHARMACOPHORE_FEATURES>
7
1 1 acceptor
1 15 hydrophobe
1 2 donor
3 23 27 28 hydrophobe
5 3 4 5 6 7 rings
6 19 21 22 24 25 29 rings
6 3 4 8 9 12 13 rings

> <PUBCHEM_HEAVY_ATOM_COUNT>
29

> <PUBCHEM_ATOM_DEF_STEREO_COUNT>
5

> <PUBCHEM_ATOM_UDEF_STEREO_COUNT>
0

> <PUBCHEM_BOND_DEF_STEREO_COUNT>
1

> <PUBCHEM_BOND_UDEF_STEREO_COUNT>
0

> <PUBCHEM_ISOTOPIC_ATOM_COUNT>
0

> <PUBCHEM_COMPONENT_COUNT>
1

> <PUBCHEM_CACTVS_TAUTO_COUNT>
27

> <PUBCHEM_CONFORMER_ID>
0091AFB200000006

> <PUBCHEM_MMFF94_ENERGY>
83.7434

> <PUBCHEM_FEATURE_SELFOVERLAP>
35.586

> <PUBCHEM_SHAPE_FINGERPRINT>
10556698 54 17834678197495332421
10675989 125 18050005489611087185
10864689 126 18191866725726040324
11621639 148 17689150537010823499
11796584 16 11455617534762617875
12422481 6 17385721361681263973
13690498 29 17845363522620116399
13944108 23 18050565144924191812
14251764 30 9223235147768225620
14739800 52 18187636999103734867
14790565 3 18410854390681324590
14950920 106 11891625585549892973
15064981 113 17774455936240502036
15082195 135 18199746934225136691
15163728 17 18261958440723819071
15198563 99 17981600778412770551
15575132 122 18410014372646276593
17980427 26 18115291273165061415
19438510 23 18041279881397375017
20715895 44 18266171742978584867
21033648 144 18340217395784229538
21033648 29 17894357686947702762
21049683 271 18198903811720031083
21388113 180 18412263951756583428
21859007 373 18409721868742507320
22122407 14 18187929430383736331
22393880 68 18342455954229454747
23559900 14 18268991977430504307
23569914 152 17481436975826509102
2747138 104 17969800750951090907
2838139 119 18410007745311382886
376196 1 18336546027986450763
4058900 60 18188218593457921091
4144715 1 18114191825555347362
4173938 306 17846202389925779792
437795 96 17838888583853049064
5283173 99 18339642342713402616
550186 72 18193556903458250127
7288768 16 17967251979865709267
7970288 3 9583249343878803588
8863177 126 9727342537358259501

> <PUBCHEM_SHAPE_MULTIPOLES>
585.07
15.26
5.62
1.27
1.76
3.11
0.18
19.2
-4.33
-3.38
-0.82
-0.11
-0.32
2.59

> <PUBCHEM_SHAPE_SELFOVERLAP>
1217.776

> <PUBCHEM_SHAPE_VOLUME>
334.6

> <PUBCHEM_COORDINATE_TYPE>
2
5
10

$$$$
