18521941
  -OEChem-10052120443D

 51 54  0     0  0  0  0  0  0999 V2000
    5.3656   -0.4217   -2.7034 Cl  0  0  0  0  0  0  0  0  0  0  0  0
    5.4113    0.0326    2.7384 Cl  0  0  0  0  0  0  0  0  0  0  0  0
    2.5127    0.7007   -0.0708 S   0  0  0  0  0  0  0  0  0  0  0  0
    4.9467   -2.3461    0.2011 O   0  0  0  0  0  0  0  0  0  0  0  0
   -5.6716    0.2376   -0.0415 N   0  0  0  0  0  0  0  0  0  0  0  0
   -8.4852   -0.1581    0.2526 N   0  0  0  0  0  0  0  0  0  0  0  0
   -0.1315    1.0477   -0.1079 N   0  0  0  0  0  0  0  0  0  0  0  0
    0.7221   -1.1560    0.0990 N   0  0  0  0  0  0  0  0  0  0  0  0
    2.0563   -3.1093    0.2831 N   0  0  0  0  0  0  0  0  0  0  0  0
   -6.5752    1.3914   -0.0021 C   0  0  0  0  0  0  0  0  0  0  0  0
   -6.1811   -0.9900    0.5826 C   0  0  0  0  0  0  0  0  0  0  0  0
   -7.9709    0.9978   -0.4921 C   0  0  0  0  0  0  0  0  0  0  0  0
   -7.5889   -1.3069    0.0728 C   0  0  0  0  0  0  0  0  0  0  0  0
   -4.2871    0.4406   -0.0588 C   0  0  0  0  0  0  0  0  0  0  0  0
   -9.8396   -0.4906   -0.1874 C   0  0  0  0  0  0  0  0  0  0  0  0
   -3.7391    1.5634    0.5611 C   0  0  0  0  0  0  0  0  0  0  0  0
   -3.4552   -0.4807   -0.6951 C   0  0  0  0  0  0  0  0  0  0  0  0
   -2.3589    1.7649    0.5448 C   0  0  0  0  0  0  0  0  0  0  0  0
   -2.0751   -0.2791   -0.7114 C   0  0  0  0  0  0  0  0  0  0  0  0
   -1.5270    0.8437   -0.0914 C   0  0  0  0  0  0  0  0  0  0  0  0
    0.8908    0.1421   -0.0216 C   0  0  0  0  0  0  0  0  0  0  0  0
    3.0500   -0.9209    0.0813 C   0  0  0  0  0  0  0  0  0  0  0  0
    1.9611   -1.7637    0.1579 C   0  0  0  0  0  0  0  0  0  0  0  0
    4.4478   -1.2013    0.1096 C   0  0  0  0  0  0  0  0  0  0  0  0
    5.4698   -0.1064    0.0095 C   0  0  0  0  0  0  0  0  0  0  0  0
    5.9347    0.3018   -1.2407 C   0  0  0  0  0  0  0  0  0  0  0  0
    5.9556    0.5022    1.1668 C   0  0  0  0  0  0  0  0  0  0  0  0
    6.8851    1.3185   -1.3336 C   0  0  0  0  0  0  0  0  0  0  0  0
    6.9060    1.5189    1.0738 C   0  0  0  0  0  0  0  0  0  0  0  0
    7.3708    1.9271   -0.1763 C   0  0  0  0  0  0  0  0  0  0  0  0
   -6.6419    1.7791    1.0227 H   0  0  0  0  0  0  0  0  0  0  0  0
   -6.2043    2.1975   -0.6473 H   0  0  0  0  0  0  0  0  0  0  0  0
   -5.5395   -1.8524    0.3683 H   0  0  0  0  0  0  0  0  0  0  0  0
   -6.1946   -0.8607    1.6727 H   0  0  0  0  0  0  0  0  0  0  0  0
   -8.6372    1.8585   -0.3566 H   0  0  0  0  0  0  0  0  0  0  0  0
   -7.9338    0.7800   -1.5682 H   0  0  0  0  0  0  0  0  0  0  0  0
   -7.5391   -1.5987   -0.9851 H   0  0  0  0  0  0  0  0  0  0  0  0
   -7.9694   -2.1702    0.6321 H   0  0  0  0  0  0  0  0  0  0  0  0
  -10.5163    0.3547   -0.0197 H   0  0  0  0  0  0  0  0  0  0  0  0
   -9.8779   -0.7575   -1.2498 H   0  0  0  0  0  0  0  0  0  0  0  0
  -10.2369   -1.3302    0.3936 H   0  0  0  0  0  0  0  0  0  0  0  0
   -4.3548    2.2935    1.0784 H   0  0  0  0  0  0  0  0  0  0  0  0
   -3.8648   -1.3516   -1.2005 H   0  0  0  0  0  0  0  0  0  0  0  0
   -1.9432    2.6416    1.0350 H   0  0  0  0  0  0  0  0  0  0  0  0
   -1.4565   -0.9997   -1.2386 H   0  0  0  0  0  0  0  0  0  0  0  0
    0.1227    2.0312   -0.0498 H   0  0  0  0  0  0  0  0  0  0  0  0
    1.2338   -3.7022    0.3361 H   0  0  0  0  0  0  0  0  0  0  0  0
    2.9443   -3.5997    0.3296 H   0  0  0  0  0  0  0  0  0  0  0  0
    7.2580    1.6485   -2.3000 H   0  0  0  0  0  0  0  0  0  0  0  0
    7.2949    2.0038    1.9657 H   0  0  0  0  0  0  0  0  0  0  0  0
    8.1107    2.7189   -0.2487 H   0  0  0  0  0  0  0  0  0  0  0  0
  1 26  1  0  0  0  0
  2 27  1  0  0  0  0
  3 21  1  0  0  0  0
  3 22  1  0  0  0  0
  4 24  2  0  0  0  0
  5 10  1  0  0  0  0
  5 11  1  0  0  0  0
  5 14  1  0  0  0  0
  6 12  1  0  0  0  0
  6 13  1  0  0  0  0
  6 15  1  0  0  0  0
  7 20  1  0  0  0  0
  7 21  1  0  0  0  0
  7 46  1  0  0  0  0
  8 21  2  0  0  0  0
  8 23  1  0  0  0  0
  9 23  1  0  0  0  0
  9 47  1  0  0  0  0
  9 48  1  0  0  0  0
 10 12  1  0  0  0  0
 10 31  1  0  0  0  0
 10 32  1  0  0  0  0
 11 13  1  0  0  0  0
 11 33  1  0  0  0  0
 11 34  1  0  0  0  0
 12 35  1  0  0  0  0
 12 36  1  0  0  0  0
 13 37  1  0  0  0  0
 13 38  1  0  0  0  0
 14 16  2  0  0  0  0
 14 17  1  0  0  0  0
 15 39  1  0  0  0  0
 15 40  1  0  0  0  0
 15 41  1  0  0  0  0
 16 18  1  0  0  0  0
 16 42  1  0  0  0  0
 17 19  2  0  0  0  0
 17 43  1  0  0  0  0
 18 20  2  0  0  0  0
 18 44  1  0  0  0  0
 19 20  1  0  0  0  0
 19 45  1  0  0  0  0
 22 23  2  0  0  0  0
 22 24  1  0  0  0  0
 24 25  1  0  0  0  0
 25 26  2  0  0  0  0
 25 27  1  0  0  0  0
 26 28  1  0  0  0  0
 27 29  2  0  0  0  0
 28 30  2  0  0  0  0
 28 49  1  0  0  0  0
 29 30  1  0  0  0  0
 29 50  1  0  0  0  0
 30 51  1  0  0  0  0
M  END
> <PUBCHEM_COMPOUND_CID>
18521941

> <PUBCHEM_CONFORMER_RMSD>
0.8

> <PUBCHEM_CONFORMER_DIVERSEORDER>
1
68
31
30
29
53
23
81
13
78
28
70
82
6
22
24
71
37
66
39
73
48
83
65
88
4
33
61
8
10
15
45
49
47
76
79
57
54
55
86
42
77
51
19
63
56
38
84
52
41
27
80
64
50
17
40
74
35
60
85
18
44
72
89
67
59
3
21
36
34
90
5
46
58
87
2
20
62
25
75
16
43
14
11
32
12
7
69
9
26

> <PUBCHEM_MMFF94_PARTIAL_CHARGES>
40
1 -0.18
10 0.37
11 0.37
12 0.27
13 0.27
14 0.1
15 0.27
16 -0.15
17 -0.15
18 -0.15
19 -0.15
2 -0.18
20 0.1
21 0.46
22 -0.05
23 0.31
24 0.57
25 0.09
26 0.18
27 0.18
28 -0.15
29 -0.15
3 -0.08
30 -0.15
4 -0.57
42 0.15
43 0.15
44 0.15
45 0.15
46 0.4
47 0.4
48 0.4
49 0.15
5 -0.84
50 0.15
51 0.15
6 -0.81
7 -0.58
8 -0.57
9 -0.88

> <PUBCHEM_EFFECTIVE_ROTOR_COUNT>
6.2

> <PUBCHEM_PHARMACOPHORE_FEATURES>
11
1 4 acceptor
1 5 cation
1 6 cation
1 7 donor
1 9 cation
1 9 donor
3 7 8 21 cation
5 3 8 21 22 23 rings
6 14 16 17 18 19 20 rings
6 25 26 27 28 29 30 rings
6 5 6 10 11 12 13 rings

> <PUBCHEM_HEAVY_ATOM_COUNT>
30

> <PUBCHEM_ATOM_DEF_STEREO_COUNT>
0

> <PUBCHEM_ATOM_UDEF_STEREO_COUNT>
0

> <PUBCHEM_BOND_DEF_STEREO_COUNT>
0

> <PUBCHEM_BOND_UDEF_STEREO_COUNT>
0

> <PUBCHEM_ISOTOPIC_ATOM_COUNT>
0

> <PUBCHEM_COMPONENT_COUNT>
1

> <PUBCHEM_CACTVS_TAUTO_COUNT>
8

> <PUBCHEM_CONFORMER_ID>
011A9F5500000001

> <PUBCHEM_MMFF94_ENERGY>
99.1403

> <PUBCHEM_FEATURE_SELFOVERLAP>
55.825

> <PUBCHEM_SHAPE_FINGERPRINT>
10 15 18333446560214660363
10050765 1 18121499051237136949
10319688 140 17345202107857051462
10391435 84 18113900494503982747
11181472 205 15266517136174207835
11315181 36 18342741811344204729
11408170 108 13912866611405831752
11638347 137 16225757507248483800
11719270 70 18333448725026435722
12082328 90 15719388431199027695
12373685 5 16443346507135058251
12516196 113 18413107251674094665
12664476 115 17275383218741350008
12838862 33 18335968840622209043
13617811 41 18334577953828663148
13914758 101 9367350336265853727
14040222 383 18261110824944444283
14118638 360 18272090448916120001
14216079 64 8574443023728065376
14251764 18 18272368668645087253
14251764 46 12612750220179586949
1454969 45 18410857668015710645
15131766 46 15649049497920342438
15183329 4 17967822634595093621
15301273 46 16845297125038512645
15461852 350 16200425876521558469
15840311 113 18407763647086151460
18365409 1 18269555103482736823
18608769 82 18411698824739812275
20105231 36 17846787316704608847
20157964 124 15863790600009323068
21049683 271 18341612642150371449
21130935 74 18339361860164437331
21360442 33 17702394949089240118
21360443 126 18113904896017357202
22149856 69 18337680710942820553
22224240 67 18040996249829967242
23559900 14 18336261327911151089
335352 9 18342172277279531413
34797466 226 17275106128773039884
4073 2 18114187423888744731
4093350 32 16917349242945464030
4325135 7 18335423465347746796
4340502 62 16226044497105432410
45377200 153 16630241515595599527
5109719 28 18272090547590020832
5283156 175 12179840598308297589
5758199 1 18411702092988222579
6004065 56 18186805807063163653
8988823 20 15068342315988474644
9962374 69 18263077873032146247

> <PUBCHEM_SHAPE_MULTIPOLES>
594.2
28.67
1.99
1.45
42.58
0.75
-0.02
-4.4
-0.86
-1.5
0.23
-3.96
-0.02
0.13

> <PUBCHEM_SHAPE_SELFOVERLAP>
1257.215

> <PUBCHEM_SHAPE_VOLUME>
336.9

> <PUBCHEM_COORDINATE_TYPE>
2
5
10

$$$$
