18458840
  -OEChem-10052115183D

 46 48  0     1  0  0  0  0  0999 V2000
   -0.9974    1.9899    0.6216 O   0  0  0  0  0  0  0  0  0  0  0  0
   -3.6299   -0.6257    0.5271 N   0  0  2  0  0  0  0  0  0  0  0  0
    2.1350    3.2078   -0.8291 N   0  0  0  0  0  0  0  0  0  0  0  0
   -2.9990    0.6986    0.4396 C   0  0  2  0  0  0  0  0  0  0  0  0
   -3.1726    1.0560   -1.0380 C   0  0  0  0  0  0  0  0  0  0  0  0
   -4.3855    0.2589   -1.5052 C   0  0  0  0  0  0  0  0  0  0  0  0
   -4.8456   -0.5189   -0.2833 C   0  0  0  0  0  0  0  0  0  0  0  0
   -1.5327    0.6989    0.8527 C   0  0  0  0  0  0  0  0  0  0  0  0
   -3.9331   -1.0316    1.8942 C   0  0  0  0  0  0  0  0  0  0  0  0
    0.3389    2.0646    0.3165 C   0  0  0  0  0  0  0  0  0  0  0  0
    1.2399    1.1269    0.8088 C   0  0  0  0  0  0  0  0  0  0  0  0
    2.5880    1.2283    0.4833 C   0  0  0  0  0  0  0  0  0  0  0  0
    3.5769    0.2423    0.9943 C   0  0  0  0  0  0  0  0  0  0  0  0
    3.7843   -0.9799    0.0750 C   0  0  0  0  0  0  0  0  0  0  0  0
    0.8326    3.0766   -0.4912 C   0  0  0  0  0  0  0  0  0  0  0  0
    2.9810    2.2779   -0.3317 C   0  0  0  0  0  0  0  0  0  0  0  0
    2.5123   -1.7500   -0.1838 C   0  0  0  0  0  0  0  0  0  0  0  0
    2.1454   -2.7955    0.6639 C   0  0  0  0  0  0  0  0  0  0  0  0
    1.7034   -1.4163   -1.2701 C   0  0  0  0  0  0  0  0  0  0  0  0
    0.9698   -3.5071    0.4250 C   0  0  0  0  0  0  0  0  0  0  0  0
    0.5277   -2.1281   -1.5088 C   0  0  0  0  0  0  0  0  0  0  0  0
    0.1609   -3.1735   -0.6611 C   0  0  0  0  0  0  0  0  0  0  0  0
   -3.5513    1.4405    1.0344 H   0  0  0  0  0  0  0  0  0  0  0  0
   -2.2993    0.7736   -1.6388 H   0  0  0  0  0  0  0  0  0  0  0  0
   -3.3320    2.1318   -1.1701 H   0  0  0  0  0  0  0  0  0  0  0  0
   -4.0916   -0.4235   -2.3114 H   0  0  0  0  0  0  0  0  0  0  0  0
   -5.1769    0.9107   -1.8890 H   0  0  0  0  0  0  0  0  0  0  0  0
   -5.6316    0.0433    0.2375 H   0  0  0  0  0  0  0  0  0  0  0  0
   -5.2445   -1.5005   -0.5582 H   0  0  0  0  0  0  0  0  0  0  0  0
   -1.0079   -0.0704    0.2716 H   0  0  0  0  0  0  0  0  0  0  0  0
   -1.4335    0.4641    1.9185 H   0  0  0  0  0  0  0  0  0  0  0  0
   -3.0148   -1.1634    2.4752 H   0  0  0  0  0  0  0  0  0  0  0  0
   -4.4455   -2.0002    1.8979 H   0  0  0  0  0  0  0  0  0  0  0  0
   -4.5691   -0.3063    2.4141 H   0  0  0  0  0  0  0  0  0  0  0  0
    0.9195    0.3298    1.4738 H   0  0  0  0  0  0  0  0  0  0  0  0
    4.5452    0.7365    1.1468 H   0  0  0  0  0  0  0  0  0  0  0  0
    3.2672   -0.0996    1.9912 H   0  0  0  0  0  0  0  0  0  0  0  0
    4.5325   -1.6460    0.5231 H   0  0  0  0  0  0  0  0  0  0  0  0
    4.2107   -0.6559   -0.8836 H   0  0  0  0  0  0  0  0  0  0  0  0
    0.1743    3.8347   -0.9034 H   0  0  0  0  0  0  0  0  0  0  0  0
    4.0186    2.4093   -0.6225 H   0  0  0  0  0  0  0  0  0  0  0  0
    2.7660   -3.0630    1.5148 H   0  0  0  0  0  0  0  0  0  0  0  0
    1.9789   -0.6090   -1.9434 H   0  0  0  0  0  0  0  0  0  0  0  0
    0.6833   -4.3202    1.0857 H   0  0  0  0  0  0  0  0  0  0  0  0
   -0.1028   -1.8677   -2.3539 H   0  0  0  0  0  0  0  0  0  0  0  0
   -0.7553   -3.7264   -0.8462 H   0  0  0  0  0  0  0  0  0  0  0  0
  1  8  1  0  0  0  0
  1 10  1  0  0  0  0
  2  4  1  0  0  0  0
  2  7  1  0  0  0  0
  2  9  1  0  0  0  0
  3 15  1  0  0  0  0
  3 16  2  0  0  0  0
  4  5  1  0  0  0  0
  4  8  1  0  0  0  0
  4 23  1  0  0  0  0
  5  6  1  0  0  0  0
  5 24  1  0  0  0  0
  5 25  1  0  0  0  0
  6  7  1  0  0  0  0
  6 26  1  0  0  0  0
  6 27  1  0  0  0  0
  7 28  1  0  0  0  0
  7 29  1  0  0  0  0
  8 30  1  0  0  0  0
  8 31  1  0  0  0  0
  9 32  1  0  0  0  0
  9 33  1  0  0  0  0
  9 34  1  0  0  0  0
 10 11  1  0  0  0  0
 10 15  2  0  0  0  0
 11 12  2  0  0  0  0
 11 35  1  0  0  0  0
 12 13  1  0  0  0  0
 12 16  1  0  0  0  0
 13 14  1  0  0  0  0
 13 36  1  0  0  0  0
 13 37  1  0  0  0  0
 14 17  1  0  0  0  0
 14 38  1  0  0  0  0
 14 39  1  0  0  0  0
 15 40  1  0  0  0  0
 16 41  1  0  0  0  0
 17 18  2  0  0  0  0
 17 19  1  0  0  0  0
 18 20  1  0  0  0  0
 18 42  1  0  0  0  0
 19 21  2  0  0  0  0
 19 43  1  0  0  0  0
 20 22  2  0  0  0  0
 20 44  1  0  0  0  0
 21 22  1  0  0  0  0
 21 45  1  0  0  0  0
 22 46  1  0  0  0  0
M  END
> <PUBCHEM_COMPOUND_CID>
18458840

> <PUBCHEM_CONFORMER_RMSD>
1

> <PUBCHEM_CONFORMER_DIVERSEORDER>
1
133
27
113
79
48
33
146
42
65
149
75
35
103
84
114
2
56
3
137
31
152
32
19
12
158
124
118
122
156
123
61
139
5
89
21
83
6
77
58
55
14
126
8
142
46
41
11
100
39
40
53
38
138
106
10
22
117
86
17
34
145
43
16
52
63
128
148
157
15
131
92
93
94
23
59
144
153
24
76
71
87
51
115
125
74
18
96
136
30
91
160
111
112
25
141
135
80
121
44
140
26
105
98
150
54
110
7
88
107
69
99
101
50
134
155
37
28
104
120
78
20
73
90
108
72
13
68
132
119
109
64
129
4
36
81
130
9
67
29
143
154
85
47
151
97
116
60
62
82
159
95
127
102
45
66
57
70
147
49

> <PUBCHEM_MMFF94_PARTIAL_CHARGES>
28
1 -0.36
10 0.08
11 -0.15
12 -0.14
13 0.14
14 0.14
15 0.16
16 0.16
17 -0.14
18 -0.15
19 -0.15
2 -0.81
20 -0.15
21 -0.15
22 -0.15
3 -0.62
35 0.15
4 0.27
40 0.15
41 0.15
42 0.15
43 0.15
44 0.15
45 0.15
46 0.15
7 0.27
8 0.28
9 0.27

> <PUBCHEM_EFFECTIVE_ROTOR_COUNT>
7

> <PUBCHEM_PHARMACOPHORE_FEATURES>
6
1 1 acceptor
1 2 cation
1 3 acceptor
5 2 4 5 6 7 rings
6 17 18 19 20 21 22 rings
6 3 10 11 12 15 16 rings

> <PUBCHEM_HEAVY_ATOM_COUNT>
22

> <PUBCHEM_ATOM_DEF_STEREO_COUNT>
0

> <PUBCHEM_ATOM_UDEF_STEREO_COUNT>
1

> <PUBCHEM_BOND_DEF_STEREO_COUNT>
0

> <PUBCHEM_BOND_UDEF_STEREO_COUNT>
0

> <PUBCHEM_ISOTOPIC_ATOM_COUNT>
0

> <PUBCHEM_COMPONENT_COUNT>
1

> <PUBCHEM_CACTVS_TAUTO_COUNT>
1

> <PUBCHEM_CONFORMER_ID>
0119A8D800000001

> <PUBCHEM_MMFF94_ENERGY>
58.1502

> <PUBCHEM_FEATURE_SELFOVERLAP>
30.446

> <PUBCHEM_SHAPE_FINGERPRINT>
1100329 8 18267861860545284432
11118852 30 17561357387756771303
12156800 1 16677301905490034927
12553582 1 18050300162658054651
12596599 1 17344920615589206855
13583140 156 17967808353908117987
14178342 30 18055354639497643704
14251757 17 18114737119477806953
14844126 61 16533415939734955258
14848160 33 18409446947405543675
15338160 23 16976979267693623008
15635459 17 18409168771053530243
17138139 8 17269168941960593447
17492 54 18263663839303811724
20645477 70 18334571386807310553
21197605 99 17980206606211374027
21315764 371 17059187359214233787
21421861 104 18127436495842646065
21860390 5 16226332645818230516
23184049 29 17545605548202158658
23559900 14 18335975381456513289
238 59 18410579512879940787
3060560 45 18335988674575837236
46194498 28 17967526900564447829
463206 1 18129648825070157807
53917941 68 17616252928732083604
6287921 2 17345209825944566335
6438718 38 17411911960804622382
6443956 14 18270679762170163505
6669772 16 18195544803475980540
81228 2 17405715774674263353

> <PUBCHEM_SHAPE_MULTIPOLES>
436.92
7.85
4.22
1.37
8.76
0.72
-0.02
0.34
0.32
-3.63
-0.59
0.9
0.33
0.3

> <PUBCHEM_SHAPE_SELFOVERLAP>
922.599

> <PUBCHEM_SHAPE_VOLUME>
245.6

> <PUBCHEM_COORDINATE_TYPE>
2
5
10

$$$$
