11432911
  -OEChem-10052115173D

 57 60  0     0  0  0  0  0  0999 V2000
    6.9090    1.4510   -0.2879 S   0  0  0  0  0  0  0  0  0  0  0  0
    7.7150   -0.9653   -0.7603 F   0  0  0  0  0  0  0  0  0  0  0  0
    6.9208   -0.6447    1.2350 F   0  0  0  0  0  0  0  0  0  0  0  0
   -2.8929    3.4282    1.4642 F   0  0  0  0  0  0  0  0  0  0  0  0
   -7.1448    2.4533   -0.3534 F   0  0  0  0  0  0  0  0  0  0  0  0
    4.3599   -0.6833    0.3620 O   0  0  0  0  0  0  0  0  0  0  0  0
    6.9131    1.7460   -1.7079 O   0  0  0  0  0  0  0  0  0  0  0  0
    5.9891    2.1189    0.6126 O   0  0  0  0  0  0  0  0  0  0  0  0
   -7.2662    0.2773   -1.8211 O   0  0  0  0  0  0  0  0  0  0  0  0
   -7.0329   -2.3750   -1.4994 O   0  0  0  0  0  0  0  0  0  0  0  0
    0.1387   -2.1480    1.0720 N   0  0  0  0  0  0  0  0  0  0  0  0
   -1.9552    0.8929    0.8006 N   0  0  0  0  0  0  0  0  0  0  0  0
   -0.7103   -3.0234    1.6623 N   0  0  0  0  0  0  0  0  0  0  0  0
   -2.3307   -1.2395    1.6434 N   0  0  0  0  0  0  0  0  0  0  0  0
    3.6231   -1.3551   -1.6406 N   0  0  0  0  0  0  0  0  0  0  0  0
    4.9793   -1.1083   -1.7453 N   0  0  0  0  0  0  0  0  0  0  0  0
   -6.1508   -1.4914   -0.8473 N   0  0  0  0  0  0  0  0  0  0  0  0
    0.9045   -0.2609    0.1753 C   0  0  0  0  0  0  0  0  0  0  0  0
    1.0154    1.1268   -0.3223 C   0  0  0  0  0  0  0  0  0  0  0  0
   -0.1929   -0.8549    0.7597 C   0  0  0  0  0  0  0  0  0  0  0  0
    1.9339   -1.2348    0.1350 C   0  0  0  0  0  0  0  0  0  0  0  0
    1.4339   -2.3908    0.6956 C   0  0  0  0  0  0  0  0  0  0  0  0
    2.0757    1.9643    0.4272 C   0  0  0  0  0  0  0  0  0  0  0  0
    1.2775    1.2132   -1.8426 C   0  0  0  0  0  0  0  0  0  0  0  0
   -1.5205   -0.3830    1.0724 C   0  0  0  0  0  0  0  0  0  0  0  0
    3.2990   -1.0947   -0.3917 C   0  0  0  0  0  0  0  0  0  0  0  0
    5.3668   -0.7186   -0.5532 C   0  0  0  0  0  0  0  0  0  0  0  0
    6.7017   -0.3265   -0.0848 C   0  0  0  0  0  0  0  0  0  0  0  0
   -1.8868   -2.5216    1.9117 C   0  0  0  0  0  0  0  0  0  0  0  0
   -3.2592    1.2836    0.5101 C   0  0  0  0  0  0  0  0  0  0  0  0
   -4.1431    0.4008   -0.1309 C   0  0  0  0  0  0  0  0  0  0  0  0
   -3.7171    2.5664    0.8516 C   0  0  0  0  0  0  0  0  0  0  0  0
    8.5506    1.7547    0.3168 C   0  0  0  0  0  0  0  0  0  0  0  0
   -5.4502    0.7902   -0.4229 C   0  0  0  0  0  0  0  0  0  0  0  0
   -5.0241    2.9560    0.5596 C   0  0  0  0  0  0  0  0  0  0  0  0
   -5.8907    2.0678   -0.0776 C   0  0  0  0  0  0  0  0  0  0  0  0
   -6.3511   -0.1385   -1.0872 C   0  0  0  0  0  0  0  0  0  0  0  0
   -7.1875   -3.5332   -0.6907 C   0  0  0  0  0  0  0  0  0  0  0  0
    0.0813    1.6642   -0.1931 H   0  0  0  0  0  0  0  0  0  0  0  0
    1.8856   -3.3607    0.8586 H   0  0  0  0  0  0  0  0  0  0  0  0
    3.0947    1.6378    0.2064 H   0  0  0  0  0  0  0  0  0  0  0  0
    2.0020    3.0179    0.1356 H   0  0  0  0  0  0  0  0  0  0  0  0
    1.9249    1.9045    1.5105 H   0  0  0  0  0  0  0  0  0  0  0  0
    0.5598    0.5996   -2.3982 H   0  0  0  0  0  0  0  0  0  0  0  0
    1.1715    2.2482   -2.1869 H   0  0  0  0  0  0  0  0  0  0  0  0
    2.2852    0.8862   -2.1106 H   0  0  0  0  0  0  0  0  0  0  0  0
   -1.3286    1.6661    0.9937 H   0  0  0  0  0  0  0  0  0  0  0  0
   -2.6264   -3.1834    2.3918 H   0  0  0  0  0  0  0  0  0  0  0  0
   -3.7830   -0.5754   -0.4461 H   0  0  0  0  0  0  0  0  0  0  0  0
    8.7550    2.8236    0.2264 H   0  0  0  0  0  0  0  0  0  0  0  0
    8.6027    1.4514    1.3639 H   0  0  0  0  0  0  0  0  0  0  0  0
    9.2600    1.1860   -0.2870 H   0  0  0  0  0  0  0  0  0  0  0  0
   -5.3671    3.9506    0.8283 H   0  0  0  0  0  0  0  0  0  0  0  0
   -5.4791   -1.8930   -0.2020 H   0  0  0  0  0  0  0  0  0  0  0  0
   -7.5768   -3.2645    0.2966 H   0  0  0  0  0  0  0  0  0  0  0  0
   -7.9048   -4.1992   -1.1779 H   0  0  0  0  0  0  0  0  0  0  0  0
   -6.2340   -4.0618   -0.5919 H   0  0  0  0  0  0  0  0  0  0  0  0
  1  7  2  0  0  0  0
  1  8  2  0  0  0  0
  1 28  1  0  0  0  0
  1 33  1  0  0  0  0
  2 28  1  0  0  0  0
  3 28  1  0  0  0  0
  4 32  1  0  0  0  0
  5 36  1  0  0  0  0
  6 26  1  0  0  0  0
  6 27  1  0  0  0  0
  9 37  2  0  0  0  0
 10 17  1  0  0  0  0
 10 38  1  0  0  0  0
 11 13  1  0  0  0  0
 11 20  1  0  0  0  0
 11 22  1  0  0  0  0
 12 25  1  0  0  0  0
 12 30  1  0  0  0  0
 12 47  1  0  0  0  0
 13 29  2  0  0  0  0
 14 25  2  0  0  0  0
 14 29  1  0  0  0  0
 15 16  1  0  0  0  0
 15 26  2  0  0  0  0
 16 27  2  0  0  0  0
 17 37  1  0  0  0  0
 17 54  1  0  0  0  0
 18 19  1  0  0  0  0
 18 20  2  0  0  0  0
 18 21  1  0  0  0  0
 19 23  1  0  0  0  0
 19 24  1  0  0  0  0
 19 39  1  0  0  0  0
 20 25  1  0  0  0  0
 21 22  2  0  0  0  0
 21 26  1  0  0  0  0
 22 40  1  0  0  0  0
 23 41  1  0  0  0  0
 23 42  1  0  0  0  0
 23 43  1  0  0  0  0
 24 44  1  0  0  0  0
 24 45  1  0  0  0  0
 24 46  1  0  0  0  0
 27 28  1  0  0  0  0
 29 48  1  0  0  0  0
 30 31  1  0  0  0  0
 30 32  2  0  0  0  0
 31 34  2  0  0  0  0
 31 49  1  0  0  0  0
 32 35  1  0  0  0  0
 33 50  1  0  0  0  0
 33 51  1  0  0  0  0
 33 52  1  0  0  0  0
 34 36  1  0  0  0  0
 34 37  1  0  0  0  0
 35 36  2  0  0  0  0
 35 53  1  0  0  0  0
 38 55  1  0  0  0  0
 38 56  1  0  0  0  0
 38 57  1  0  0  0  0
M  END
> <PUBCHEM_COMPOUND_CID>
11432911

> <PUBCHEM_CONFORMER_RMSD>
1

> <PUBCHEM_CONFORMER_DIVERSEORDER>
2
111
327
253
235
37
277
208
73
68
216
317
308
293
92
231
265
192
271
283
89
312
12
322
213
169
184
287
320
44
256
296
316
82
261
84
289
323
223
62
81
247
150
305
211
328
60
326
18
75
32
270
255
100
55
31
152
226
278
291
105
97
101
140
330
108
200
49
61
329
132
126
285
199
119
288
228
179
83
171
124
129
88
331
103
238
157
230
201
96
279
29
99
284
194
300
295
272
264
260
311
156
309
227
254
137
294
112
313
240
275
263
139
7
193
269
106
214
167
191
86
332
35
20
245
324
236
310
110
185
286
127
233
304
8
176
117
178
72
224
306
107
175
266
36
301
22
219
229
203
174
148
165
267
220
170
16
39
149
173
24
268
54
128
25
116
190
321
217
239
262
80
315
52
210
325
122
163
188
17
56
252
225
299
113
93
259
234
172
53
33
207
91
74
9
14
153
26
180
244
237
47
164
250
257
177
181
30
189
241
290
273
90
98
57
109
302
136
282
183
297
70
15
155
69
95
276
144
46
158
50
197
161
23
333
142
77
78
120
48
115
215
168
232
151
102
141
221
242
104
166
248
10
206
335
280
27
298
40
94
130
186
159
182
85
307
134
204
63
76
292
118
334
318
303
162
246
34
19
202
314
21
6
51
41
258
43
198
58
67
3
319
160
218
222
1
274
59
249
64
28
87
281
66
114
38
205
121
251
65
13
5
79
11
209
212
4
133
154
145
135
196
147
143
42
45
146
125
71
195
131
243
187
123
138

> <PUBCHEM_MMFF94_PARTIAL_CHARGES>
41
1 1.09
10 -0.32
11 0.51
12 -0.55
13 -0.65
14 -0.66
15 -0.34
16 -0.34
17 -0.39
18 -0.18
19 0.18
2 -0.34
20 -0.24
22 -0.3
25 0.58
26 0.48
27 0.3
28 0.97
29 0.6
3 -0.34
30 0.1
31 -0.15
32 0.19
33 0.11
34 0.09
35 -0.15
36 0.19
37 0.54
38 0.28
4 -0.19
40 0.15
47 0.4
48 0.06
49 0.15
5 -0.19
53 0.15
54 0.37
6 -0.28
7 -0.65
8 -0.65
9 -0.57

> <PUBCHEM_EFFECTIVE_ROTOR_COUNT>
9

> <PUBCHEM_PHARMACOPHORE_FEATURES>
12
1 12 donor
1 17 donor
1 7 acceptor
1 8 acceptor
1 9 acceptor
3 12 14 25 cation
3 13 14 29 cation
3 19 23 24 hydrophobe
5 11 18 20 21 22 rings
5 6 15 16 26 27 rings
6 11 13 14 20 25 29 rings
6 30 31 32 34 35 36 rings

> <PUBCHEM_HEAVY_ATOM_COUNT>
38

> <PUBCHEM_ATOM_DEF_STEREO_COUNT>
0

> <PUBCHEM_ATOM_UDEF_STEREO_COUNT>
0

> <PUBCHEM_BOND_DEF_STEREO_COUNT>
0

> <PUBCHEM_BOND_UDEF_STEREO_COUNT>
0

> <PUBCHEM_ISOTOPIC_ATOM_COUNT>
0

> <PUBCHEM_COMPONENT_COUNT>
1

> <PUBCHEM_CACTVS_TAUTO_COUNT>
6

> <PUBCHEM_CONFORMER_ID>
00AE73CF00000002

> <PUBCHEM_MMFF94_ENERGY>
86.9763

> <PUBCHEM_FEATURE_SELFOVERLAP>
61.147

> <PUBCHEM_SHAPE_FINGERPRINT>
10462674 296 17197115771988024455
10554248 39 17458350706430452054
10577160 103 18268709579245964289
11007060 377 18335708251543847873
11135609 187 18114741526209224113
12440610 7 18338814372436517526
13811026 1 18407761435241374890
14394314 77 18263369088352249377
15142383 8 14634865358395850718
15183329 4 17749111084385083044
15461852 350 18343025501711721894
18608769 82 18261968413880435315
18681886 176 17988630883760935401
24771293 8 18335423456895612012
2748736 6 18187650184933050788
2838139 119 16732985310701080623
437795 163 18411980303652443333
44880568 143 18201728301513323708
484989 97 18189057667607856219
5265222 85 17131823296167607285
6004065 56 18271242819924840084
6009941 240 16443073802787358538
6058803 2 17761482596701814123
6086070 43 15430318100545104103
6328613 192 18186527622395307600
6371009 1 18113623360932327124

> <PUBCHEM_SHAPE_MULTIPOLES>
692.56
23.65
3.59
1.56
12.3
0.19
0.19
-5
8.77
-5.25
-0.93
-0.51
0.48
-1.22

> <PUBCHEM_SHAPE_SELFOVERLAP>
1494.553

> <PUBCHEM_SHAPE_VOLUME>
386.1

> <PUBCHEM_COORDINATE_TYPE>
2
5
10

$$$$
