136060555
  -OEChem-10062121573D

 57 62  0     0  0  0  0  0  0999 V2000
    6.4046   -1.4129    0.0349 O   0  0  0  0  0  0  0  0  0  0  0  0
   -9.9023    3.3587   -0.2170 O   0  0  0  0  0  0  0  0  0  0  0  0
   -0.6092   -3.9431    0.4964 N   0  0  0  0  0  0  0  0  0  0  0  0
   -1.9003   -3.5222    0.5060 N   0  0  0  0  0  0  0  0  0  0  0  0
    5.4564    0.2591   -1.2622 N   0  0  0  0  0  0  0  0  0  0  0  0
    7.6019    3.9814    1.3344 N   0  0  0  0  0  0  0  0  0  0  0  0
   -0.4933   -1.7875    0.0943 C   0  0  0  0  0  0  0  0  0  0  0  0
    0.3322   -0.5787   -0.1828 C   0  0  0  0  0  0  0  0  0  0  0  0
    1.7080   -1.2724   -0.1491 C   0  0  0  0  0  0  0  0  0  0  0  0
    0.2409   -2.9291    0.2542 C   0  0  0  0  0  0  0  0  0  0  0  0
    1.6286   -2.6693    0.1125 C   0  0  0  0  0  0  0  0  0  0  0  0
   -1.8155   -2.2011    0.2586 C   0  0  0  0  0  0  0  0  0  0  0  0
    2.9417   -0.6769   -0.3423 C   0  0  0  0  0  0  0  0  0  0  0  0
    2.7399   -3.4786    0.1859 C   0  0  0  0  0  0  0  0  0  0  0  0
   -2.9997   -1.3877    0.1891 C   0  0  0  0  0  0  0  0  0  0  0  0
    4.0809   -1.4866   -0.2710 C   0  0  0  0  0  0  0  0  0  0  0  0
    3.9809   -2.8687   -0.0102 C   0  0  0  0  0  0  0  0  0  0  0  0
   -2.9441   -0.0426    0.5545 C   0  0  0  0  0  0  0  0  0  0  0  0
   -4.2033   -1.9437   -0.2442 C   0  0  0  0  0  0  0  0  0  0  0  0
    5.3942   -0.8924   -0.4694 C   0  0  0  0  0  0  0  0  0  0  0  0
   -5.2961    0.1904    0.0534 C   0  0  0  0  0  0  0  0  0  0  0  0
   -4.0923    0.7463    0.4866 C   0  0  0  0  0  0  0  0  0  0  0  0
   -5.3516   -1.1547   -0.3119 C   0  0  0  0  0  0  0  0  0  0  0  0
   -6.4865    1.0091   -0.0182 C   0  0  0  0  0  0  0  0  0  0  0  0
    6.6875    0.9506   -1.5707 C   0  0  0  0  0  0  0  0  0  0  0  0
    7.0066    2.0096   -0.5555 C   0  0  0  0  0  0  0  0  0  0  0  0
   -6.3791    2.3756   -0.2767 C   0  0  0  0  0  0  0  0  0  0  0  0
   -7.7420    0.4320    0.1729 C   0  0  0  0  0  0  0  0  0  0  0  0
   -7.5271    3.1651   -0.3438 C   0  0  0  0  0  0  0  0  0  0  0  0
   -8.8899    1.2213    0.1059 C   0  0  0  0  0  0  0  0  0  0  0  0
   -8.7825    2.5879   -0.1525 C   0  0  0  0  0  0  0  0  0  0  0  0
    6.3085    3.2121   -0.5578 C   0  0  0  0  0  0  0  0  0  0  0  0
    8.0021    1.7919    0.3907 C   0  0  0  0  0  0  0  0  0  0  0  0
    6.6411    4.1570    0.3994 C   0  0  0  0  0  0  0  0  0  0  0  0
    8.2589    2.8003    1.3056 C   0  0  0  0  0  0  0  0  0  0  0  0
    0.2662    0.1678    0.6117 H   0  0  0  0  0  0  0  0  0  0  0  0
    0.1308   -0.1567   -1.1703 H   0  0  0  0  0  0  0  0  0  0  0  0
    2.9850    0.3935   -0.5099 H   0  0  0  0  0  0  0  0  0  0  0  0
   -0.4160   -4.9236    0.6624 H   0  0  0  0  0  0  0  0  0  0  0  0
    2.6659   -4.5413    0.3849 H   0  0  0  0  0  0  0  0  0  0  0  0
    4.8742   -3.4878    0.0378 H   0  0  0  0  0  0  0  0  0  0  0  0
   -2.0328    0.4174    0.9236 H   0  0  0  0  0  0  0  0  0  0  0  0
   -4.2737   -2.9849   -0.5498 H   0  0  0  0  0  0  0  0  0  0  0  0
   -4.0095    1.7790    0.8145 H   0  0  0  0  0  0  0  0  0  0  0  0
   -6.2581   -1.6225   -0.6861 H   0  0  0  0  0  0  0  0  0  0  0  0
    4.6173    0.6231   -1.7006 H   0  0  0  0  0  0  0  0  0  0  0  0
    6.5752    1.4042   -2.5622 H   0  0  0  0  0  0  0  0  0  0  0  0
    7.5017    0.2203   -1.6436 H   0  0  0  0  0  0  0  0  0  0  0  0
   -5.4260    2.8632   -0.4621 H   0  0  0  0  0  0  0  0  0  0  0  0
   -7.8728   -0.6209    0.4072 H   0  0  0  0  0  0  0  0  0  0  0  0
   -7.4381    4.2279   -0.5518 H   0  0  0  0  0  0  0  0  0  0  0  0
   -9.8619    0.7615    0.2635 H   0  0  0  0  0  0  0  0  0  0  0  0
    5.5262    3.4143   -1.2815 H   0  0  0  0  0  0  0  0  0  0  0  0
    8.5659    0.8660    0.4233 H   0  0  0  0  0  0  0  0  0  0  0  0
    6.1263    5.1112    0.4403 H   0  0  0  0  0  0  0  0  0  0  0  0
    9.0252    2.6798    2.0643 H   0  0  0  0  0  0  0  0  0  0  0  0
  -10.6809    2.7969   -0.0611 H   0  0  0  0  0  0  0  0  0  0  0  0
  1 20  2  0  0  0  0
  2 31  1  0  0  0  0
  2 57  1  0  0  0  0
  3  4  1  0  0  0  0
  3 10  1  0  0  0  0
  3 39  1  0  0  0  0
  4 12  2  0  0  0  0
  5 20  1  0  0  0  0
  5 25  1  0  0  0  0
  5 46  1  0  0  0  0
  6 34  2  0  0  0  0
  6 35  1  0  0  0  0
  7  8  1  0  0  0  0
  7 10  2  0  0  0  0
  7 12  1  0  0  0  0
  8  9  1  0  0  0  0
  8 36  1  0  0  0  0
  8 37  1  0  0  0  0
  9 11  2  0  0  0  0
  9 13  1  0  0  0  0
 10 11  1  0  0  0  0
 11 14  1  0  0  0  0
 12 15  1  0  0  0  0
 13 16  2  0  0  0  0
 13 38  1  0  0  0  0
 14 17  2  0  0  0  0
 14 40  1  0  0  0  0
 15 18  2  0  0  0  0
 15 19  1  0  0  0  0
 16 17  1  0  0  0  0
 16 20  1  0  0  0  0
 17 41  1  0  0  0  0
 18 22  1  0  0  0  0
 18 42  1  0  0  0  0
 19 23  2  0  0  0  0
 19 43  1  0  0  0  0
 21 22  2  0  0  0  0
 21 23  1  0  0  0  0
 21 24  1  0  0  0  0
 22 44  1  0  0  0  0
 23 45  1  0  0  0  0
 24 27  2  0  0  0  0
 24 28  1  0  0  0  0
 25 26  1  0  0  0  0
 25 47  1  0  0  0  0
 25 48  1  0  0  0  0
 26 32  2  0  0  0  0
 26 33  1  0  0  0  0
 27 29  1  0  0  0  0
 27 49  1  0  0  0  0
 28 30  2  0  0  0  0
 28 50  1  0  0  0  0
 29 31  2  0  0  0  0
 29 51  1  0  0  0  0
 30 31  1  0  0  0  0
 30 52  1  0  0  0  0
 32 34  1  0  0  0  0
 32 53  1  0  0  0  0
 33 35  2  0  0  0  0
 33 54  1  0  0  0  0
 34 55  1  0  0  0  0
 35 56  1  0  0  0  0
M  END
> <PUBCHEM_COMPOUND_CID>
136060555

> <PUBCHEM_CONFORMER_RMSD>
1

> <PUBCHEM_CONFORMER_DIVERSEORDER>
1
8
5
6
10
7
4
3
9
2

> <PUBCHEM_MMFF94_PARTIAL_CHARGES>
51
1 -0.57
10 -0.2
11 0.05
12 0.23
13 -0.15
14 -0.15
15 0.05
16 0.09
17 -0.15
18 -0.15
19 -0.15
2 -0.53
20 0.54
22 -0.15
23 -0.15
25 0.44
26 -0.14
27 -0.15
28 -0.15
29 -0.15
3 0.3
30 -0.15
31 0.08
32 -0.15
33 -0.15
34 0.16
35 0.16
38 0.15
39 0.27
4 -0.71
40 0.15
41 0.15
42 0.15
43 0.15
44 0.15
45 0.15
46 0.37
49 0.15
5 -0.73
50 0.15
51 0.15
52 0.15
53 0.15
54 0.15
55 0.15
56 0.15
57 0.45
6 -0.62
7 -0.18
8 0.32
9 -0.14

> <PUBCHEM_EFFECTIVE_ROTOR_COUNT>
6.2

> <PUBCHEM_PHARMACOPHORE_FEATURES>
12
1 1 acceptor
1 2 donor
1 3 donor
1 4 acceptor
1 5 donor
1 6 acceptor
5 3 4 7 10 12 rings
5 7 8 9 10 11 rings
6 15 18 19 21 22 23 rings
6 24 27 28 29 30 31 rings
6 6 26 32 33 34 35 rings
6 9 11 13 14 16 17 rings

> <PUBCHEM_HEAVY_ATOM_COUNT>
35

> <PUBCHEM_ATOM_DEF_STEREO_COUNT>
0

> <PUBCHEM_ATOM_UDEF_STEREO_COUNT>
0

> <PUBCHEM_BOND_DEF_STEREO_COUNT>
0

> <PUBCHEM_BOND_UDEF_STEREO_COUNT>
0

> <PUBCHEM_ISOTOPIC_ATOM_COUNT>
0

> <PUBCHEM_COMPONENT_COUNT>
1

> <PUBCHEM_CACTVS_TAUTO_COUNT>
-1

> <PUBCHEM_CONFORMER_ID>
081C1E8B00000001

> <PUBCHEM_MMFF94_ENERGY>
123.1116

> <PUBCHEM_FEATURE_SELFOVERLAP>
61.238

> <PUBCHEM_SHAPE_FINGERPRINT>
10055352 69 18410582807905937867
10209105 3 9655581795166204737
10280341 67 18410847780859161544
10533779 1 18411692201536777688
10816530 90 18412539908211755808
10838868 160 18410284814126550741
11007060 377 18337116777252400243
11135609 127 18342452634879455870
11135609 187 18411420609601042539
11297010 23 18200883877284916606
11409948 8 18261405481713518875
11411753 3 18266480843993208006
11578821 258 18340205186021219713
11828042 226 18272934942872171577
12013929 29 17981608161625224517
12522641 68 18201441419220611670
12539747 164 10087653619648406991
12539765 74 18201444640477550295
12925494 130 18339079423310016560
13782708 43 10953727946383785030
13947935 32 18262530286065888657
13947947 74 18343588434253425449
14394314 77 18408606976436119477
15131766 46 18411692176288849791
15198563 99 15195004874466111459
15320295 198 18057890345646003368
15347591 1 18409450292927689323
15455200 26 18127392661518317016
15538507 64 18340481296947924552
15773879 343 18410019827208250941
15840311 113 18335425616899976766
16664035 1 17976537218140480082
16758388 162 18115862997973565218
16991971 28 10015866478978077245
16993089 31 10519992547486585025
16994733 274 18260267464284752554
17686467 74 18114184168825324931
17852330 31 17095238129707839642
17852330 53 14201949057102349357
19053607 189 18341319081098091370
19301679 30 7997977881419309346
19302320 297 17967818288573798812
19304671 126 18201730518011380334
20501277 180 18060419122956976185
20609170 84 17168128028152479772
20691028 202 18335423499612507164
21033648 29 18186519908096058363
21057603 285 15793108542543037580
21298829 104 18335143094014114069
21362267 2 18044084672022370757
21585481 151 8069763900648954964
21585482 111 18410014382007020172
23522609 53 17415852289242137915
23569943 247 9727096246748532676
23729417 116 17767399450818394167
24771293 8 18334010622622731415
25242607 90 8862654669178921821
25269216 80 17417800786923621119
255183 451 10592044665726274314
2748736 6 18266455589716148684
3525247 18 17911510215009577848
3711267 37 18201727215208234817
3918712 181 18413384354527300160
406291 66 10015587185855185644
4073 2 18041289777572295859
4366758 26 18196660601435574385
4403749 210 18334864939728417307
44575985 48 16194488711163526040
4760202 170 18202563982717943096
5080951 261 16081377388969689115
5104073 3 18040996306656891058
5265222 85 18343584079578911543
54583773 228 18410853271119375199
57676310 151 17631741465401219096
5776283 40 18413388752753224473
59521506 201 18129651037237902512
636783 25 18268695282329550096
9831232 110 9511199425759414176
99344 41 18338234968104409172

> <PUBCHEM_SHAPE_MULTIPOLES>
688.62
31.38
5.64
0.89
17.98
1.55
0.04
46.27
0.15
-4.9
-1
-1.5
0.41
2.11

> <PUBCHEM_SHAPE_SELFOVERLAP>
1561.706

> <PUBCHEM_SHAPE_VOLUME>
361.1

> <PUBCHEM_COORDINATE_TYPE>
2
5
10

$$$$
