44410954
  -OEChem-10062121593D

 61 63  0     1  0  0  0  0  0999 V2000
   -6.9122   -3.1521   -1.4479 Cl  0  0  0  0  0  0  0  0  0  0  0  0
   -4.4007   -1.7390   -2.1000 F   0  0  0  0  0  0  0  0  0  0  0  0
    3.0148    2.1002   -0.3097 O   0  0  0  0  0  0  0  0  0  0  0  0
    3.6012   -2.1896    3.2961 O   0  0  0  0  0  0  0  0  0  0  0  0
    2.9944   -0.7875    0.2605 N   0  0  1  0  0  0  0  0  0  0  0  0
    6.3047   -1.4383   -1.3365 N   0  0  0  0  0  0  0  0  0  0  0  0
    3.3134    0.0595    2.9370 N   0  0  0  0  0  0  0  0  0  0  0  0
   -1.3923    3.8247    0.1996 N   0  0  0  0  0  0  0  0  0  0  0  0
   -3.0558    0.1070   -0.5358 N   0  0  0  0  0  0  0  0  0  0  0  0
   -3.3153    2.3926   -0.0420 N   0  0  0  0  0  0  0  0  0  0  0  0
    2.3175   -1.4756    1.3588 C   0  0  1  0  0  0  0  0  0  0  0  0
    4.1370   -1.5705   -0.2074 C   0  0  0  0  0  0  0  0  0  0  0  0
    2.0610   -0.5394   -0.8389 C   0  0  0  0  0  0  0  0  0  0  0  0
    5.1563   -0.6599   -0.8854 C   0  0  0  0  0  0  0  0  0  0  0  0
    1.1554    0.6149   -0.5646 C   0  0  0  0  0  0  0  0  0  0  0  0
    2.1843   -2.9614    1.0488 C   0  0  0  0  0  0  0  0  0  0  0  0
   -0.2222    0.4201   -0.5612 C   0  0  0  0  0  0  0  0  0  0  0  0
    1.6696    1.8818   -0.3122 C   0  0  0  0  0  0  0  0  0  0  0  0
    3.1350   -1.2721    2.6248 C   0  0  0  0  0  0  0  0  0  0  0  0
   -1.0843    1.5002   -0.3039 C   0  0  0  0  0  0  0  0  0  0  0  0
   -0.5770    2.7845   -0.0477 C   0  0  0  0  0  0  0  0  0  0  0  0
    0.8058    2.9510   -0.0573 C   0  0  0  0  0  0  0  0  0  0  0  0
    7.4568   -0.5667   -1.5721 C   0  0  0  0  0  0  0  0  0  0  0  0
    5.9754   -2.1848   -2.5518 C   0  0  0  0  0  0  0  0  0  0  0  0
   -2.4703    1.3732   -0.2858 C   0  0  0  0  0  0  0  0  0  0  0  0
   -2.7169    3.5723    0.1891 C   0  0  0  0  0  0  0  0  0  0  0  0
    3.4541    3.4303   -0.0415 C   0  0  0  0  0  0  0  0  0  0  0  0
   -4.2476   -0.4892   -0.0941 C   0  0  0  0  0  0  0  0  0  0  0  0
   -4.9079   -1.4165   -0.9002 C   0  0  0  0  0  0  0  0  0  0  0  0
   -4.7713   -0.1519    1.1539 C   0  0  0  0  0  0  0  0  0  0  0  0
   -6.0920   -2.0066   -0.4582 C   0  0  0  0  0  0  0  0  0  0  0  0
   -5.9553   -0.7419    1.5959 C   0  0  0  0  0  0  0  0  0  0  0  0
   -6.6158   -1.6692    0.7898 C   0  0  0  0  0  0  0  0  0  0  0  0
    1.3271   -1.0518    1.5662 H   0  0  0  0  0  0  0  0  0  0  0  0
    3.8137   -2.3756   -0.8771 H   0  0  0  0  0  0  0  0  0  0  0  0
    4.6723   -2.0375    0.6305 H   0  0  0  0  0  0  0  0  0  0  0  0
    1.4881   -1.4333   -1.1129 H   0  0  0  0  0  0  0  0  0  0  0  0
    2.5959   -0.2756   -1.7605 H   0  0  0  0  0  0  0  0  0  0  0  0
    5.4817    0.0775   -0.1379 H   0  0  0  0  0  0  0  0  0  0  0  0
    4.7279   -0.0851   -1.7149 H   0  0  0  0  0  0  0  0  0  0  0  0
    3.1250   -3.5218    1.0821 H   0  0  0  0  0  0  0  0  0  0  0  0
    1.5515   -3.4244    1.8178 H   0  0  0  0  0  0  0  0  0  0  0  0
    1.6888   -3.1665    0.0953 H   0  0  0  0  0  0  0  0  0  0  0  0
   -0.6083   -0.5782   -0.7502 H   0  0  0  0  0  0  0  0  0  0  0  0
    1.1577    3.9586    0.1453 H   0  0  0  0  0  0  0  0  0  0  0  0
    7.7456   -0.0498   -0.6500 H   0  0  0  0  0  0  0  0  0  0  0  0
    7.2542    0.1862   -2.3426 H   0  0  0  0  0  0  0  0  0  0  0  0
    8.3275   -1.1545   -1.8841 H   0  0  0  0  0  0  0  0  0  0  0  0
    5.1986   -2.9346   -2.3770 H   0  0  0  0  0  0  0  0  0  0  0  0
    6.8514   -2.7437   -2.9016 H   0  0  0  0  0  0  0  0  0  0  0  0
    5.6490   -1.5285   -3.3671 H   0  0  0  0  0  0  0  0  0  0  0  0
    2.9279    0.8048    2.3660 H   0  0  0  0  0  0  0  0  0  0  0  0
    3.8442    0.3380    3.7555 H   0  0  0  0  0  0  0  0  0  0  0  0
   -2.6444   -0.3685   -1.3343 H   0  0  0  0  0  0  0  0  0  0  0  0
   -3.3684    4.4142    0.3892 H   0  0  0  0  0  0  0  0  0  0  0  0
    4.5486    3.4195   -0.0794 H   0  0  0  0  0  0  0  0  0  0  0  0
    3.1767    3.7519    0.9682 H   0  0  0  0  0  0  0  0  0  0  0  0
    3.1184    4.1311   -0.8135 H   0  0  0  0  0  0  0  0  0  0  0  0
   -4.2688    0.5567    1.8069 H   0  0  0  0  0  0  0  0  0  0  0  0
   -6.3615   -0.4818    2.5690 H   0  0  0  0  0  0  0  0  0  0  0  0
   -7.5372   -2.1213    1.1479 H   0  0  0  0  0  0  0  0  0  0  0  0
  1 31  1  0  0  0  0
  2 29  1  0  0  0  0
  3 18  1  0  0  0  0
  3 27  1  0  0  0  0
  4 19  2  0  0  0  0
  5 11  1  0  0  0  0
  5 12  1  0  0  0  0
  5 13  1  0  0  0  0
  6 14  1  0  0  0  0
  6 23  1  0  0  0  0
  6 24  1  0  0  0  0
  7 19  1  0  0  0  0
  7 52  1  0  0  0  0
  7 53  1  0  0  0  0
  8 21  1  0  0  0  0
  8 26  2  0  0  0  0
  9 25  1  0  0  0  0
  9 28  1  0  0  0  0
  9 54  1  0  0  0  0
 10 25  2  0  0  0  0
 10 26  1  0  0  0  0
 11 16  1  0  0  0  0
 11 19  1  0  0  0  0
 11 34  1  0  0  0  0
 12 14  1  0  0  0  0
 12 35  1  0  0  0  0
 12 36  1  0  0  0  0
 13 15  1  0  0  0  0
 13 37  1  0  0  0  0
 13 38  1  0  0  0  0
 14 39  1  0  0  0  0
 14 40  1  0  0  0  0
 15 17  2  0  0  0  0
 15 18  1  0  0  0  0
 16 41  1  0  0  0  0
 16 42  1  0  0  0  0
 16 43  1  0  0  0  0
 17 20  1  0  0  0  0
 17 44  1  0  0  0  0
 18 22  2  0  0  0  0
 20 21  2  0  0  0  0
 20 25  1  0  0  0  0
 21 22  1  0  0  0  0
 22 45  1  0  0  0  0
 23 46  1  0  0  0  0
 23 47  1  0  0  0  0
 23 48  1  0  0  0  0
 24 49  1  0  0  0  0
 24 50  1  0  0  0  0
 24 51  1  0  0  0  0
 26 55  1  0  0  0  0
 27 56  1  0  0  0  0
 27 57  1  0  0  0  0
 27 58  1  0  0  0  0
 28 29  2  0  0  0  0
 28 30  1  0  0  0  0
 29 31  1  0  0  0  0
 30 32  2  0  0  0  0
 30 59  1  0  0  0  0
 31 33  2  0  0  0  0
 32 33  1  0  0  0  0
 32 60  1  0  0  0  0
 33 61  1  0  0  0  0
M  END
> <PUBCHEM_COMPOUND_CID>
44410954

> <PUBCHEM_CONFORMER_RMSD>
1

> <PUBCHEM_CONFORMER_DIVERSEORDER>
1
135
191
243
124
149
261
99
236
8
115
26
148
190
127
156
241
139
234
177
202
33
235
87
53
206
77
212
229
153
43
213
72
10
264
220
70
166
79
165
260
59
17
201
265
174
258
90
209
113
178
134
155
252
128
198
141
92
248
218
262
27
114
94
126
137
203
180
66
9
186
20
32
211
131
193
259
200
84
133
56
172
91
233
88
101
110
6
71
237
159
89
197
169
187
106
232
55
246
83
175
179
250
162
143
249
227
46
207
96
219
242
111
160
217
161
254
239
86
122
68
163
41
167
255
238
67
49
40
13
240
76
69
245
225
228
140
215
28
182
125
109
57
158
204
107
154
144
136
74
103
147
60
65
168
257
62
251
18
105
78
256
221
64
104
192
22
224
81
4
196
151
150
194
226
75
244
231
173
45
3
38
118
132
189
210
12
188
50
61
34
176
47
195
63
199
181
146
142
223
24
164
120
36
35
152
145
185
16
117
253
37
129
93
42
108
30
216
157
25
130
80
7
119
170
97
171
44
73
31
29
85
15
102
123
222
247
116
112
48
95
121
183
54
58
208
14
82
205
39
19
138
214
98
184
230
51
2
21
11
5
100
263
52
23

> <PUBCHEM_MMFF94_PARTIAL_CHARGES>
40
1 -0.18
10 -0.62
11 0.33
12 0.27
13 0.41
14 0.27
15 -0.14
17 -0.15
18 0.08
19 0.57
2 -0.19
21 0.31
22 -0.15
23 0.27
24 0.27
25 0.41
26 0.47
27 0.28
28 0.1
29 0.19
3 -0.36
30 -0.15
31 0.18
32 -0.15
33 -0.15
4 -0.57
44 0.15
45 0.15
5 -0.81
52 0.37
53 0.37
54 0.4
55 0.15
59 0.15
6 -0.81
60 0.15
61 0.15
7 -0.8
8 -0.62
9 -0.6

> <PUBCHEM_EFFECTIVE_ROTOR_COUNT>
10

> <PUBCHEM_PHARMACOPHORE_FEATURES>
11
1 3 acceptor
1 4 acceptor
1 5 cation
1 6 cation
1 7 donor
1 9 donor
3 8 10 26 cation
3 9 10 25 cation
6 15 17 18 20 21 22 rings
6 28 29 30 31 32 33 rings
6 8 10 20 21 25 26 rings

> <PUBCHEM_HEAVY_ATOM_COUNT>
33

> <PUBCHEM_ATOM_DEF_STEREO_COUNT>
1

> <PUBCHEM_ATOM_UDEF_STEREO_COUNT>
0

> <PUBCHEM_BOND_DEF_STEREO_COUNT>
0

> <PUBCHEM_BOND_UDEF_STEREO_COUNT>
0

> <PUBCHEM_ISOTOPIC_ATOM_COUNT>
0

> <PUBCHEM_COMPONENT_COUNT>
1

> <PUBCHEM_CACTVS_TAUTO_COUNT>
6

> <PUBCHEM_CONFORMER_ID>
02A5A84A00000001

> <PUBCHEM_MMFF94_ENERGY>
116.5691

> <PUBCHEM_FEATURE_SELFOVERLAP>
55.994

> <PUBCHEM_SHAPE_FINGERPRINT>
10169797 241 18334013929884771042
10622 236 17823684275102279803
11991303 11 17753320981976820245
12107183 9 18199766782287415833
12422481 6 17704352169674168279
12553582 1 18409724067464939527
12788726 201 18261111833628593315
13631057 29 18335145254409141284
13673619 4 17632581522385708382
13690498 29 18336270050356635981
14117953 113 18201717337321297103
14251740 57 18272929466023405739
14767858 380 18041011635072845302
14931854 50 17822011995125635795
15001296 14 18263640838999950406
15721738 202 18060144232686576712
15776043 110 18265357035935113809
17492 89 18410569552792693933
19319366 153 17971469851828677261
19841028 212 18196085763339653823
20028762 73 18272933851454878991
20775530 9 18260265248656971781
208703 8 18342457088655177127
21033648 29 17129841852003519192
21421861 104 18408602586926509545
21703447 108 18337098064317443385
21774942 28 12468627335712631094
21796203 349 18050606020728406185
23522609 53 17909871817618059493
23559900 14 18271802359373866516
3004659 81 18260544546127214687
345986 75 18272372010209226833
404807 78 16444771538349948123
463206 1 18263081192456758603
57527295 17 17894905214311640387
6058803 2 17535469215404773184
6823239 73 18201431421026550904
70251023 43 18412552006970870280

> <PUBCHEM_SHAPE_MULTIPOLES>
632.1
17.35
4.39
2.15
6.73
3.37
-1.51
-17.17
5.82
1.08
0.31
-2.81
-2.16
-1.06

> <PUBCHEM_SHAPE_SELFOVERLAP>
1337.356

> <PUBCHEM_SHAPE_VOLUME>
357.2

> <PUBCHEM_COORDINATE_TYPE>
2
5
10

$$$$
