9820195
  -OEChem-10052120443D

 43 45  0     1  0  0  0  0  0999 V2000
    0.1332   -2.1173   -0.2291 O   0  0  0  0  0  0  0  0  0  0  0  0
    6.1547    1.3581   -1.1574 N   0  0  0  0  0  0  0  0  0  0  0  0
   -0.9312   -0.0585    0.1772 N   0  0  0  0  0  0  0  0  0  0  0  0
   -5.3997    1.3209    0.1299 N   0  0  0  0  0  0  0  0  0  0  0  0
   -5.0362   -1.0030   -0.3906 N   0  0  0  0  0  0  0  0  0  0  0  0
    4.3484    0.0649   -0.1499 C   0  0  0  0  0  0  0  0  0  0  0  0
    3.8087   -0.5385    1.1538 C   0  0  0  0  0  0  0  0  0  0  0  0
    3.3351    1.0429   -0.7599 C   0  0  0  0  0  0  0  0  0  0  0  0
    1.4397   -0.2190    0.3359 C   0  0  0  0  0  0  0  0  0  0  0  0
    2.4448   -1.1941    0.9489 C   0  0  0  0  0  0  0  0  0  0  0  0
    1.9706    0.3878   -0.9632 C   0  0  0  0  0  0  0  0  0  0  0  0
    5.6886    0.7575    0.0907 C   0  0  1  0  0  0  0  0  0  0  0  0
    0.1480   -0.9251    0.0600 C   0  0  0  0  0  0  0  0  0  0  0  0
    6.7238   -0.2271    0.6251 C   0  0  0  0  0  0  0  0  0  0  0  0
   -2.3014   -0.3594   -0.0084 C   0  0  0  0  0  0  0  0  0  0  0  0
   -3.2788    0.6221    0.1427 C   0  0  0  0  0  0  0  0  0  0  0  0
   -2.6802   -1.6463   -0.3459 C   0  0  0  0  0  0  0  0  0  0  0  0
   -4.5975    0.2269   -0.0622 C   0  0  0  0  0  0  0  0  0  0  0  0
   -3.3095    2.0037    0.4689 C   0  0  0  0  0  0  0  0  0  0  0  0
   -4.0336   -1.9029   -0.5197 C   0  0  0  0  0  0  0  0  0  0  0  0
   -4.6275    2.4064    0.4532 C   0  0  0  0  0  0  0  0  0  0  0  0
    4.4928   -0.7568   -0.8670 H   0  0  0  0  0  0  0  0  0  0  0  0
    3.7254    0.2393    1.9234 H   0  0  0  0  0  0  0  0  0  0  0  0
    4.4842   -1.3068    1.5437 H   0  0  0  0  0  0  0  0  0  0  0  0
    3.6658    1.4048   -1.7394 H   0  0  0  0  0  0  0  0  0  0  0  0
    3.2212    1.9212   -0.1116 H   0  0  0  0  0  0  0  0  0  0  0  0
    1.2697    0.5868    1.0629 H   0  0  0  0  0  0  0  0  0  0  0  0
    2.5748   -2.0739    0.3050 H   0  0  0  0  0  0  0  0  0  0  0  0
    2.0688   -1.5665    1.9099 H   0  0  0  0  0  0  0  0  0  0  0  0
    1.2646    1.1336   -1.3491 H   0  0  0  0  0  0  0  0  0  0  0  0
    2.0509   -0.3878   -1.7364 H   0  0  0  0  0  0  0  0  0  0  0  0
    5.5723    1.5619    0.8280 H   0  0  0  0  0  0  0  0  0  0  0  0
    6.4987   -0.5396    1.6493 H   0  0  0  0  0  0  0  0  0  0  0  0
    6.7978   -1.1210   -0.0040 H   0  0  0  0  0  0  0  0  0  0  0  0
    7.7176    0.2352    0.6605 H   0  0  0  0  0  0  0  0  0  0  0  0
    7.1086    1.6984   -1.0397 H   0  0  0  0  0  0  0  0  0  0  0  0
    5.5987    2.1831   -1.3778 H   0  0  0  0  0  0  0  0  0  0  0  0
   -0.7355    0.9106    0.4177 H   0  0  0  0  0  0  0  0  0  0  0  0
   -2.0085   -2.4791   -0.4869 H   0  0  0  0  0  0  0  0  0  0  0  0
   -2.4652    2.6415    0.6918 H   0  0  0  0  0  0  0  0  0  0  0  0
   -4.3638   -2.9040   -0.7848 H   0  0  0  0  0  0  0  0  0  0  0  0
   -6.4068    1.3257    0.0461 H   0  0  0  0  0  0  0  0  0  0  0  0
   -5.0836    3.3677    0.6432 H   0  0  0  0  0  0  0  0  0  0  0  0
  1 13  2  0  0  0  0
  2 12  1  0  0  0  0
  2 36  1  0  0  0  0
  2 37  1  0  0  0  0
  3 13  1  0  0  0  0
  3 15  1  0  0  0  0
  3 38  1  0  0  0  0
  4 18  1  0  0  0  0
  4 21  1  0  0  0  0
  4 42  1  0  0  0  0
  5 18  2  0  0  0  0
  5 20  1  0  0  0  0
  6  7  1  0  0  0  0
  6  8  1  0  0  0  0
  6 12  1  0  0  0  0
  6 22  1  0  0  0  0
  7 10  1  0  0  0  0
  7 23  1  0  0  0  0
  7 24  1  0  0  0  0
  8 11  1  0  0  0  0
  8 25  1  0  0  0  0
  8 26  1  0  0  0  0
  9 10  1  0  0  0  0
  9 11  1  0  0  0  0
  9 13  1  0  0  0  0
  9 27  1  0  0  0  0
 10 28  1  0  0  0  0
 10 29  1  0  0  0  0
 11 30  1  0  0  0  0
 11 31  1  0  0  0  0
 12 14  1  0  0  0  0
 12 32  1  0  0  0  0
 14 33  1  0  0  0  0
 14 34  1  0  0  0  0
 14 35  1  0  0  0  0
 15 16  2  0  0  0  0
 15 17  1  0  0  0  0
 16 18  1  0  0  0  0
 16 19  1  0  0  0  0
 17 20  2  0  0  0  0
 17 39  1  0  0  0  0
 19 21  2  0  0  0  0
 19 40  1  0  0  0  0
 20 41  1  0  0  0  0
 21 43  1  0  0  0  0
M  END
> <PUBCHEM_COMPOUND_CID>
9820195

> <PUBCHEM_CONFORMER_RMSD>
0.8

> <PUBCHEM_CONFORMER_DIVERSEORDER>
1
31
53
61
19
40
23
13
69
66
45
52
14
27
11
43
48
67
30
36
8
64
5
26
41
56
24
62
6
35
44
2
34
58
38
37
54
60
28
51
16
29
32
4
65
10
59
21
12
47
55
42
7
3
68
20
9
50
17
25
49
57
70
15
46
18
39
63
33
22

> <PUBCHEM_MMFF94_PARTIAL_CHARGES>
22
1 -0.57
12 0.27
13 0.57
15 0.12
17 -0.15
18 0.11
19 -0.15
2 -0.99
20 0.16
21 -0.3
3 -0.55
36 0.36
37 0.36
38 0.37
39 0.15
4 0.03
40 0.15
41 0.15
42 0.27
43 0.15
5 -0.57
9 0.06

> <PUBCHEM_EFFECTIVE_ROTOR_COUNT>
5.2

> <PUBCHEM_PHARMACOPHORE_FEATURES>
9
1 1 acceptor
1 2 cation
1 2 donor
1 3 donor
1 4 donor
3 4 5 18 cation
5 4 16 18 19 21 rings
6 5 15 16 17 18 20 rings
6 6 7 8 9 10 11 rings

> <PUBCHEM_HEAVY_ATOM_COUNT>
21

> <PUBCHEM_ATOM_DEF_STEREO_COUNT>
0

> <PUBCHEM_ATOM_UDEF_STEREO_COUNT>
1

> <PUBCHEM_BOND_DEF_STEREO_COUNT>
0

> <PUBCHEM_BOND_UDEF_STEREO_COUNT>
0

> <PUBCHEM_ISOTOPIC_ATOM_COUNT>
0

> <PUBCHEM_COMPONENT_COUNT>
1

> <PUBCHEM_CACTVS_TAUTO_COUNT>
12

> <PUBCHEM_CONFORMER_ID>
0095D82300000001

> <PUBCHEM_MMFF94_ENERGY>
39.8583

> <PUBCHEM_FEATURE_SELFOVERLAP>
45.784

> <PUBCHEM_SHAPE_FINGERPRINT>
10354089 29 17821451248843300152
10411042 1 17909262830632814103
10595046 47 18409165549727733706
10730089 173 18342739611049649288
10912923 1 18186512207319644418
11056379 131 18272087257829791903
11089746 13 18335137618374072328
11315181 36 18187926217916873247
12107183 9 17759515578077034322
12236239 1 18260828211368388938
12390115 104 17988372477322480265
12507557 5 17676491665865264093
12596602 18 17530685419925739944
12916748 109 18411989078207526798
13167372 99 18335701629247816680
13177829 73 18410293597292167752
13631057 29 17969222416361882035
13740256 8 8430309139026216454
13785724 45 17760361094636695970
14251764 75 17553213108179615417
14341114 328 18259981548327701433
14573314 32 17917435306818007006
14739800 52 18196920288032247144
14849402 71 18042692874420586828
15183329 4 18341338816799642726
15475509 8 18188506687938597054
15778101 99 18343024354939570937
1601671 61 18411698768931442144
17844677 252 18201440328308674920
17980427 23 18261116287630758501
19427546 20 18410849980889381951
19489759 90 18343863329144591643
20281389 69 18410009940482893256
20511986 3 18260814995416688361
20645477 56 18272933800267756801
21033648 29 17203030946347974834
21065198 48 18334570222554675259
21267235 1 18340488975942377315
22061861 79 16487264248765279124
2297311 6 17917715733880725947
23081809 10 18187082880193728886
23402539 116 18343298184716109324
23536379 177 18412825781377226378
23557571 272 18060424628893103637
23559900 14 17843681058558842271
2916195 48 18131062779695935032
300161 21 18333725806103357067
3004659 81 18341614768691549290
34797466 226 17560529520527185476
3545911 37 18272089379231697915
4073 2 18113905996251697834
4214541 1 18411980260781982417
441001 317 18343021094816709145
474 4 17894634755414464283
5104073 3 18333730191238820795
542803 24 18407759244306640562
54446538 1 18410009965888550596
59755656 520 17530965795433176754
6299153 45 18264486196565649178
6327066 14 18192425265660528613
6328613 192 18188779456827298436
67856867 119 18335701714488085116
7062679 6 18410015424839573508
7808743 9 18340768139815330361
9965369 4 18336542733877942194
9981440 41 18408890633367070907

> <PUBCHEM_SHAPE_MULTIPOLES>
406.38
15.67
2.01
0.92
11.51
0.22
-0.01
5.1
-0.06
-2.73
-0.02
0.85
0.05
-1.66

> <PUBCHEM_SHAPE_SELFOVERLAP>
870.001

> <PUBCHEM_SHAPE_VOLUME>
222.9

> <PUBCHEM_COORDINATE_TYPE>
2
5
10

$$$$
