18451366
  -OEChem-10052115183D

 42 45  0     0  0  0  0  0  0999 V2000
    9.1861   -0.1761   -1.4508 Br  0  0  0  0  0  0  0  0  0  0  0  0
   -6.0287    2.0226    0.7604 S   0  0  0  0  0  0  0  0  0  0  0  0
    2.5827   -0.0573    1.2521 O   0  0  0  0  0  0  0  0  0  0  0  0
    1.7073    0.5041   -0.8473 N   0  0  0  0  0  0  0  0  0  0  0  0
   -5.7705   -2.3156   -0.3234 N   0  0  0  0  0  0  0  0  0  0  0  0
   -3.4413   -2.0546   -0.6316 N   0  0  0  0  0  0  0  0  0  0  0  0
    3.9841    0.2013   -0.6021 N   0  0  0  0  0  0  0  0  0  0  0  0
   -3.8201    0.8891    0.1358 C   0  0  0  0  0  0  0  0  0  0  0  0
   -4.8121   -0.1437    0.0459 C   0  0  0  0  0  0  0  0  0  0  0  0
   -2.4034    0.7903   -0.1162 C   0  0  0  0  0  0  0  0  0  0  0  0
   -6.0816    0.3456    0.3658 C   0  0  0  0  0  0  0  0  0  0  0  0
   -4.3442    2.1033    0.5110 C   0  0  0  0  0  0  0  0  0  0  0  0
   -4.6931   -1.4995   -0.2988 C   0  0  0  0  0  0  0  0  0  0  0  0
   -1.5313    0.4647    0.9226 C   0  0  0  0  0  0  0  0  0  0  0  0
   -1.9054    1.0204   -1.3987 C   0  0  0  0  0  0  0  0  0  0  0  0
    0.3369    0.5994   -0.6036 C   0  0  0  0  0  0  0  0  0  0  0  0
   -0.1611    0.3691    0.6787 C   0  0  0  0  0  0  0  0  0  0  0  0
   -0.5352    0.9251   -1.6425 C   0  0  0  0  0  0  0  0  0  0  0  0
   -7.2078   -0.4858    0.3455 C   0  0  0  0  0  0  0  0  0  0  0  0
   -6.9760   -1.8034   -0.0082 C   0  0  0  0  0  0  0  0  0  0  0  0
    2.7468    0.1890    0.0615 C   0  0  0  0  0  0  0  0  0  0  0  0
    5.2654   -0.0586   -0.0609 C   0  0  0  0  0  0  0  0  0  0  0  0
    6.3941    0.0012   -0.8781 C   0  0  0  0  0  0  0  0  0  0  0  0
    5.3992   -0.3744    1.2912 C   0  0  0  0  0  0  0  0  0  0  0  0
    7.6568   -0.2549   -0.3432 C   0  0  0  0  0  0  0  0  0  0  0  0
    6.6618   -0.6307    1.8260 C   0  0  0  0  0  0  0  0  0  0  0  0
    7.7906   -0.5709    1.0087 C   0  0  0  0  0  0  0  0  0  0  0  0
   -3.8256    3.0423    0.6534 H   0  0  0  0  0  0  0  0  0  0  0  0
   -1.9046    0.2812    1.9275 H   0  0  0  0  0  0  0  0  0  0  0  0
   -2.5718    1.2740   -2.2198 H   0  0  0  0  0  0  0  0  0  0  0  0
    0.4468    0.1123    1.5343 H   0  0  0  0  0  0  0  0  0  0  0  0
   -0.1610    1.1067   -2.6468 H   0  0  0  0  0  0  0  0  0  0  0  0
   -8.1998   -0.1253    0.5902 H   0  0  0  0  0  0  0  0  0  0  0  0
   -7.7978   -2.5120   -0.0476 H   0  0  0  0  0  0  0  0  0  0  0  0
    1.9942    0.6855   -1.8060 H   0  0  0  0  0  0  0  0  0  0  0  0
   -2.5861   -1.5260   -0.6397 H   0  0  0  0  0  0  0  0  0  0  0  0
   -3.4102   -3.0369   -0.8724 H   0  0  0  0  0  0  0  0  0  0  0  0
    3.9676    0.4238   -1.5941 H   0  0  0  0  0  0  0  0  0  0  0  0
    6.2864    0.2475   -1.9323 H   0  0  0  0  0  0  0  0  0  0  0  0
    4.5766   -0.4408    1.9885 H   0  0  0  0  0  0  0  0  0  0  0  0
    6.7673   -0.8769    2.8787 H   0  0  0  0  0  0  0  0  0  0  0  0
    8.7671   -0.7735    1.4411 H   0  0  0  0  0  0  0  0  0  0  0  0
  1 25  1  0  0  0  0
  2 11  1  0  0  0  0
  2 12  1  0  0  0  0
  3 21  2  0  0  0  0
  4 16  1  0  0  0  0
  4 21  1  0  0  0  0
  4 35  1  0  0  0  0
  5 13  2  0  0  0  0
  5 20  1  0  0  0  0
  6 13  1  0  0  0  0
  6 36  1  0  0  0  0
  6 37  1  0  0  0  0
  7 21  1  0  0  0  0
  7 22  1  0  0  0  0
  7 38  1  0  0  0  0
  8  9  1  0  0  0  0
  8 10  1  0  0  0  0
  8 12  2  0  0  0  0
  9 11  2  0  0  0  0
  9 13  1  0  0  0  0
 10 14  2  0  0  0  0
 10 15  1  0  0  0  0
 11 19  1  0  0  0  0
 12 28  1  0  0  0  0
 14 17  1  0  0  0  0
 14 29  1  0  0  0  0
 15 18  2  0  0  0  0
 15 30  1  0  0  0  0
 16 17  2  0  0  0  0
 16 18  1  0  0  0  0
 17 31  1  0  0  0  0
 18 32  1  0  0  0  0
 19 20  2  0  0  0  0
 19 33  1  0  0  0  0
 20 34  1  0  0  0  0
 22 23  2  0  0  0  0
 22 24  1  0  0  0  0
 23 25  1  0  0  0  0
 23 39  1  0  0  0  0
 24 26  2  0  0  0  0
 24 40  1  0  0  0  0
 25 27  2  0  0  0  0
 26 27  1  0  0  0  0
 26 41  1  0  0  0  0
 27 42  1  0  0  0  0
M  END
> <PUBCHEM_COMPOUND_CID>
18451366

> <PUBCHEM_CONFORMER_RMSD>
0.8

> <PUBCHEM_CONFORMER_DIVERSEORDER>
1
14
7
15
26
30
31
16
2
17
11
18
21
8
13
23
12
28
19
32
29
20
3
6
4
25
10
27
5
9
22
24

> <PUBCHEM_MMFF94_PARTIAL_CHARGES>
41
1 -0.11
10 0.05
11 0.04
12 -0.11
13 0.41
14 -0.15
15 -0.15
16 0.12
17 -0.15
18 -0.15
19 -0.15
2 -0.08
20 0.16
21 0.69
22 0.12
23 -0.15
24 -0.15
25 0.11
26 -0.15
27 -0.15
28 0.15
29 0.15
3 -0.57
30 0.15
31 0.15
32 0.15
33 0.15
34 0.15
35 0.37
36 0.4
37 0.4
38 0.37
39 0.15
4 -0.55
40 0.15
41 0.15
42 0.15
5 -0.62
6 -0.9
7 -0.55
8 -0.05

> <PUBCHEM_EFFECTIVE_ROTOR_COUNT>
5

> <PUBCHEM_PHARMACOPHORE_FEATURES>
10
1 1 hydrophobe
1 3 acceptor
1 4 donor
1 6 donor
1 7 donor
3 5 6 13 cation
5 2 8 9 11 12 rings
6 10 14 15 16 17 18 rings
6 22 23 24 25 26 27 rings
6 5 9 11 13 19 20 rings

> <PUBCHEM_HEAVY_ATOM_COUNT>
27

> <PUBCHEM_ATOM_DEF_STEREO_COUNT>
0

> <PUBCHEM_ATOM_UDEF_STEREO_COUNT>
0

> <PUBCHEM_BOND_DEF_STEREO_COUNT>
0

> <PUBCHEM_BOND_UDEF_STEREO_COUNT>
0

> <PUBCHEM_ISOTOPIC_ATOM_COUNT>
0

> <PUBCHEM_COMPONENT_COUNT>
1

> <PUBCHEM_CACTVS_TAUTO_COUNT>
6

> <PUBCHEM_CONFORMER_ID>
01198BA600000001

> <PUBCHEM_MMFF94_ENERGY>
87.1771

> <PUBCHEM_FEATURE_SELFOVERLAP>
50.86

> <PUBCHEM_SHAPE_FINGERPRINT>
10 15 17346593097698013728
10299344 5 18259987072109272426
10319926 262 18201992244533324009
10391435 84 15647342978575177704
11315181 36 18335422370484825689
11524674 6 17561080328091389335
12089408 11 18187367610956155408
12091667 2 17167864141081896045
12166972 35 18259704519165212868
12236239 1 18113902676130830973
13288520 33 18408603678359587037
13885169 127 18272935998668812424
13914758 101 9079118864907972436
14068700 675 18334014999305954916
14251764 18 17967253092198785752
14251764 46 18343585131692203405
14344974 204 17559388265754324759
14556957 393 15430324581113256446
14856354 85 18411983572465434119
15021287 119 17894919529264129949
15119646 104 17821725001543042882
15183329 4 17313100860966621986
15301273 46 17703792501249924916
15348495 7 17489296551229563626
15352257 5 18342458115163026918
15419008 47 17489583446566357152
15419008 91 17988063531545963112
15461852 350 18411144636477138900
15716309 27 17894630335982884776
1577012 14 17894912897828979648
17093844 174 17632572743567403329
19611394 137 17489587904314622114
20281389 69 14405182863810384026
21150785 3 15068620500529775590
21315759 40 18186803561069249672
21360443 120 17821729424985305258
21792961 116 16845016715292741076
22224240 67 18260546723849681018
23035841 295 18407759244069335219
23081809 10 17894918425172522660
23389318 12 17240484736797294078
23516275 137 18195266433117676994
23522609 53 17896628131542358244
23559900 14 18201997738255515721
23576562 1 14201971215212941783
3178227 256 16487257690271070458
328311 84 17132117931810264230
3383291 50 18339363071635839179
397830 11 17702653496991628728
4325135 7 18261111872362283470
437795 51 17346324769906782526
44389302 135 18116420468139807978
445580 167 16950566593211873204
4938544 92 18338514124141781885
5104073 3 16988012574060350786
5219985 9 17894349977793150004
54039377 194 17895482539948603675
57527293 21 17129303349758086687
58260988 114 16878808109739950731
5969126 39 16877936127345105717
6691757 9 18342181043239262785
67123 10 18412548722096355580
9831232 110 18193275188233195494
9953998 17 17632298978352232179

> <PUBCHEM_SHAPE_MULTIPOLES>
539.65
27.4
1.66
1.36
37.78
0.38
-0.04
7.04
-0.87
-4.68
0.06
2.25
-0.09
-1.37

> <PUBCHEM_SHAPE_SELFOVERLAP>
1167.971

> <PUBCHEM_SHAPE_VOLUME>
302

> <PUBCHEM_COORDINATE_TYPE>
2
5
10

$$$$
