11691173
  -OEChem-10062121563D

 57 59  0     1  0  0  0  0  0999 V2000
    6.7354   -1.3618   -2.2953 Cl  0  0  0  0  0  0  0  0  0  0  0  0
    4.3763    0.1161   -1.3048 F   0  0  0  0  0  0  0  0  0  0  0  0
   -5.9852   -3.2851    1.2509 O   0  0  0  0  0  0  0  0  0  0  0  0
   -2.6099    2.8146    0.1314 O   0  0  0  0  0  0  0  0  0  0  0  0
   -5.4499    0.8100   -0.1114 O   0  0  0  0  0  0  0  0  0  0  0  0
   -2.6411   -0.4900   -0.9316 N   0  0  1  0  0  0  0  0  0  0  0  0
   -5.1147    0.7204   -2.3802 N   0  0  0  0  0  0  0  0  0  0  0  0
    2.0826    3.5478    0.4493 N   0  0  0  0  0  0  0  0  0  0  0  0
    2.8026   -0.5045    0.8862 N   0  0  0  0  0  0  0  0  0  0  0  0
    3.6043    1.7031    0.7466 N   0  0  0  0  0  0  0  0  0  0  0  0
   -4.0264   -0.9482   -1.0074 C   0  0  1  0  0  0  0  0  0  0  0  0
   -2.3296   -0.0202    0.4183 C   0  0  0  0  0  0  0  0  0  0  0  0
   -4.3925   -1.8533    0.1761 C   0  0  0  0  0  0  0  0  0  0  0  0
   -1.1628    0.9313    0.4258 C   0  0  0  0  0  0  0  0  0  0  0  0
   -1.7249   -1.5614   -1.3228 C   0  0  0  0  0  0  0  0  0  0  0  0
   -5.7933   -2.4574    0.1099 C   0  0  0  0  0  0  0  0  0  0  0  0
   -4.9337    0.2724   -1.0884 C   0  0  0  0  0  0  0  0  0  0  0  0
    0.1274    0.4331    0.5785 C   0  0  0  0  0  0  0  0  0  0  0  0
   -1.3570    2.3006    0.2823 C   0  0  0  0  0  0  0  0  0  0  0  0
    1.2241    1.3126    0.5869 C   0  0  0  0  0  0  0  0  0  0  0  0
    1.0409    2.6976    0.4429 C   0  0  0  0  0  0  0  0  0  0  0  0
   -0.2611    3.1687    0.2917 C   0  0  0  0  0  0  0  0  0  0  0  0
    2.5389    0.8799    0.7355 C   0  0  0  0  0  0  0  0  0  0  0  0
    3.3074    3.0046    0.6013 C   0  0  0  0  0  0  0  0  0  0  0  0
   -7.2836   -3.8616    1.2631 C   0  0  0  0  0  0  0  0  0  0  0  0
    3.9001   -1.3037    0.5298 C   0  0  0  0  0  0  0  0  0  0  0  0
   -2.7167    4.2298   -0.0093 C   0  0  0  0  0  0  0  0  0  0  0  0
    4.6789   -0.9710   -0.5785 C   0  0  0  0  0  0  0  0  0  0  0  0
    4.2115   -2.4328    1.2874 C   0  0  0  0  0  0  0  0  0  0  0  0
    5.7692   -1.7670   -0.9291 C   0  0  0  0  0  0  0  0  0  0  0  0
    5.3019   -3.2288    0.9367 C   0  0  0  0  0  0  0  0  0  0  0  0
    6.0807   -2.8960   -0.1715 C   0  0  0  0  0  0  0  0  0  0  0  0
   -4.1833   -1.5177   -1.9343 H   0  0  0  0  0  0  0  0  0  0  0  0
   -3.1647    0.5188    0.8812 H   0  0  0  0  0  0  0  0  0  0  0  0
   -2.1134   -0.8474    1.1101 H   0  0  0  0  0  0  0  0  0  0  0  0
   -3.6843   -2.6866    0.2643 H   0  0  0  0  0  0  0  0  0  0  0  0
   -4.3439   -1.3237    1.1358 H   0  0  0  0  0  0  0  0  0  0  0  0
   -1.6674   -2.3796   -0.5971 H   0  0  0  0  0  0  0  0  0  0  0  0
   -0.7135   -1.1739   -1.4807 H   0  0  0  0  0  0  0  0  0  0  0  0
   -2.0177   -1.9885   -2.2895 H   0  0  0  0  0  0  0  0  0  0  0  0
   -6.5549   -1.6703    0.1016 H   0  0  0  0  0  0  0  0  0  0  0  0
   -5.8971   -3.0597   -0.8000 H   0  0  0  0  0  0  0  0  0  0  0  0
    0.2628   -0.6390    0.6936 H   0  0  0  0  0  0  0  0  0  0  0  0
   -0.3602    4.2451    0.1832 H   0  0  0  0  0  0  0  0  0  0  0  0
   -5.6975    1.5281   -2.5738 H   0  0  0  0  0  0  0  0  0  0  0  0
   -4.6732    0.2764   -3.1791 H   0  0  0  0  0  0  0  0  0  0  0  0
    2.1764   -0.9548    1.5481 H   0  0  0  0  0  0  0  0  0  0  0  0
    4.1424    3.6947    0.6051 H   0  0  0  0  0  0  0  0  0  0  0  0
   -8.0497   -3.0814    1.3076 H   0  0  0  0  0  0  0  0  0  0  0  0
   -7.4339   -4.4880    0.3785 H   0  0  0  0  0  0  0  0  0  0  0  0
   -7.3732   -4.4891    2.1540 H   0  0  0  0  0  0  0  0  0  0  0  0
   -2.3706    4.7532    0.8886 H   0  0  0  0  0  0  0  0  0  0  0  0
   -2.2216    4.5845   -0.9197 H   0  0  0  0  0  0  0  0  0  0  0  0
   -3.7815    4.4613   -0.1188 H   0  0  0  0  0  0  0  0  0  0  0  0
    3.6139   -2.7035    2.1541 H   0  0  0  0  0  0  0  0  0  0  0  0
    5.5446   -4.1077    1.5268 H   0  0  0  0  0  0  0  0  0  0  0  0
    6.9274   -3.5257   -0.4325 H   0  0  0  0  0  0  0  0  0  0  0  0
  1 30  1  0  0  0  0
  2 28  1  0  0  0  0
  3 16  1  0  0  0  0
  3 25  1  0  0  0  0
  4 19  1  0  0  0  0
  4 27  1  0  0  0  0
  5 17  2  0  0  0  0
  6 11  1  0  0  0  0
  6 12  1  0  0  0  0
  6 15  1  0  0  0  0
  7 17  1  0  0  0  0
  7 45  1  0  0  0  0
  7 46  1  0  0  0  0
  8 21  1  0  0  0  0
  8 24  2  0  0  0  0
  9 23  1  0  0  0  0
  9 26  1  0  0  0  0
  9 47  1  0  0  0  0
 10 23  2  0  0  0  0
 10 24  1  0  0  0  0
 11 13  1  0  0  0  0
 11 17  1  0  0  0  0
 11 33  1  0  0  0  0
 12 14  1  0  0  0  0
 12 34  1  0  0  0  0
 12 35  1  0  0  0  0
 13 16  1  0  0  0  0
 13 36  1  0  0  0  0
 13 37  1  0  0  0  0
 14 18  2  0  0  0  0
 14 19  1  0  0  0  0
 15 38  1  0  0  0  0
 15 39  1  0  0  0  0
 15 40  1  0  0  0  0
 16 41  1  0  0  0  0
 16 42  1  0  0  0  0
 18 20  1  0  0  0  0
 18 43  1  0  0  0  0
 19 22  2  0  0  0  0
 20 21  2  0  0  0  0
 20 23  1  0  0  0  0
 21 22  1  0  0  0  0
 22 44  1  0  0  0  0
 24 48  1  0  0  0  0
 25 49  1  0  0  0  0
 25 50  1  0  0  0  0
 25 51  1  0  0  0  0
 26 28  2  0  0  0  0
 26 29  1  0  0  0  0
 27 52  1  0  0  0  0
 27 53  1  0  0  0  0
 27 54  1  0  0  0  0
 28 30  1  0  0  0  0
 29 31  2  0  0  0  0
 29 55  1  0  0  0  0
 30 32  2  0  0  0  0
 31 32  1  0  0  0  0
 31 56  1  0  0  0  0
 32 57  1  0  0  0  0
M  END
> <PUBCHEM_COMPOUND_CID>
11691173

> <PUBCHEM_CONFORMER_RMSD>
1

> <PUBCHEM_CONFORMER_DIVERSEORDER>
3
64
134
66
96
94
103
41
125
110
20
8
18
26
63
176
28
122
109
19
72
129
101
39
135
177
21
136
128
48
35
6
120
43
83
127
150
145
25
85
22
55
157
163
32
149
113
36
30
45
170
65
165
138
53
124
142
52
58
164
92
73
14
33
79
130
23
107
24
29
27
99
62
59
132
146
159
169
16
114
108
17
5
15
105
126
175
71
158
84
90
67
106
4
9
139
11
13
156
155
119
40
88
154
34
166
86
100
174
95
91
31
77
61
75
118
104
12
89
123
98
74
42
80
60
168
44
160
121
147
78
111
70
50
10
93
162
151
115
140
117
144
153
2
97
1
141
131
87
116
152
82
49
76
112
102
51
172
57
137
54
46
38
143
171
37
81
7
173
56
161
148
47
68
167
69
133

> <PUBCHEM_MMFF94_PARTIAL_CHARGES>
39
1 -0.18
10 -0.62
11 0.33
12 0.41
14 -0.14
15 0.27
16 0.28
17 0.57
18 -0.15
19 0.08
2 -0.19
21 0.31
22 -0.15
23 0.41
24 0.47
25 0.28
26 0.1
27 0.28
28 0.19
29 -0.15
3 -0.56
30 0.18
31 -0.15
32 -0.15
4 -0.36
43 0.15
44 0.15
45 0.37
46 0.37
47 0.4
48 0.15
5 -0.57
55 0.15
56 0.15
57 0.15
6 -0.81
7 -0.8
8 -0.62
9 -0.6

> <PUBCHEM_EFFECTIVE_ROTOR_COUNT>
10

> <PUBCHEM_PHARMACOPHORE_FEATURES>
11
1 3 acceptor
1 4 acceptor
1 5 acceptor
1 6 cation
1 7 donor
1 9 donor
3 8 10 24 cation
3 9 10 23 cation
6 14 18 19 20 21 22 rings
6 26 28 29 30 31 32 rings
6 8 10 20 21 23 24 rings

> <PUBCHEM_HEAVY_ATOM_COUNT>
32

> <PUBCHEM_ATOM_DEF_STEREO_COUNT>
1

> <PUBCHEM_ATOM_UDEF_STEREO_COUNT>
0

> <PUBCHEM_BOND_DEF_STEREO_COUNT>
0

> <PUBCHEM_BOND_UDEF_STEREO_COUNT>
0

> <PUBCHEM_ISOTOPIC_ATOM_COUNT>
0

> <PUBCHEM_COMPONENT_COUNT>
1

> <PUBCHEM_CACTVS_TAUTO_COUNT>
6

> <PUBCHEM_CONFORMER_ID>
00B264A500000003

> <PUBCHEM_MMFF94_ENERGY>
117.3014

> <PUBCHEM_FEATURE_SELFOVERLAP>
55.993

> <PUBCHEM_SHAPE_FINGERPRINT>
10050765 1 18412260610515107576
10622 236 17414684826098521879
11135926 11 18125986407562302100
117089 54 18410018749318944875
11991303 11 17896879847149207669
12107183 9 18271534096296236017
12422481 6 17132112424871082357
13009979 54 17989215840757757305
13540713 4 18341597214427299752
13690498 29 18340774758370216900
13785724 45 18340216301200402675
14251764 30 18408325514412680851
14866123 147 18197495130702469017
15064986 96 17917444137761728935
15250474 111 18044089052034015314
17492 89 18410568509157995241
17686467 74 18341884153604068330
17909252 39 18412825789819279970
19301679 30 18339924921860367753
20775530 9 18202275910111926362
21682296 61 18341895238482343543
21703447 108 18341600547648696368
22033318 11 17985016854045162611
23559900 14 18340193154962690417
2748736 6 9079118830248372283
439807 62 18260268555671467987
44062 13 18268990878245189844
46194498 28 17678449985999835885
5104073 3 18131634495529960377
6201320 77 15767833913950969750
6697151 62 18200290183295868741
70251023 43 18337394936603626472
7970288 3 18410853244121216618
8863177 126 18263646324058744755

> <PUBCHEM_SHAPE_MULTIPOLES>
610.63
17.32
5.3
1.47
3.23
1.66
0.74
-22.08
2.89
2.74
-1.86
-0.35
-0.77
2.36

> <PUBCHEM_SHAPE_SELFOVERLAP>
1295.341

> <PUBCHEM_SHAPE_VOLUME>
342.5

> <PUBCHEM_COORDINATE_TYPE>
2
5
10

$$$$
