11562171
  -OEChem-10062122013D

 62 65  0     1  0  0  0  0  0999 V2000
   -5.4095   -4.1323    0.8670 Cl  0  0  0  0  0  0  0  0  0  0  0  0
   -3.3304   -2.1790    1.6390 F   0  0  0  0  0  0  0  0  0  0  0  0
    5.0981    0.0301   -2.0438 O   0  0  0  0  0  0  0  0  0  0  0  0
    2.6007    3.8012    0.1937 O   0  0  0  0  0  0  0  0  0  0  0  0
    2.8112   -2.8614    0.2033 N   0  0  0  0  0  0  0  0  0  0  0  0
    2.3311   -0.1932   -0.5713 N   0  0  1  0  0  0  0  0  0  0  0  0
    5.4840    0.3306    0.1920 N   0  0  0  0  0  0  0  0  0  0  0  0
   -2.1352    4.2777    0.1454 N   0  0  0  0  0  0  0  0  0  0  0  0
   -2.6649    0.1776    0.3420 N   0  0  0  0  0  0  0  0  0  0  0  0
   -3.5725    2.3455    0.2316 N   0  0  0  0  0  0  0  0  0  0  0  0
    3.5505   -1.0091   -0.4648 C   0  0  0  0  0  0  0  0  0  0  0  0
    3.3434   -2.3917   -1.0993 C   0  0  0  0  0  0  0  0  0  0  0  0
    3.5821   -1.7792    0.8630 C   0  0  0  0  0  0  0  0  0  0  0  0
    3.3326   -4.1742    0.5498 C   0  0  0  0  0  0  0  0  0  0  0  0
    4.7692   -0.1784   -0.8723 C   0  0  0  0  0  0  0  0  0  0  0  0
    2.4433    0.9530    0.3317 C   0  0  0  0  0  0  0  0  0  0  0  0
    2.1739    0.2555   -1.9536 C   0  0  0  0  0  0  0  0  0  0  0  0
    3.2841   -4.3565    2.0635 C   0  0  0  0  0  0  0  0  0  0  0  0
    2.5343   -5.2645   -0.1594 C   0  0  0  0  0  0  0  0  0  0  0  0
    1.2399    1.8344    0.2823 C   0  0  0  0  0  0  0  0  0  0  0  0
    1.3698    3.2172    0.2158 C   0  0  0  0  0  0  0  0  0  0  0  0
   -0.0291    1.2642    0.3032 C   0  0  0  0  0  0  0  0  0  0  0  0
   -1.1694    2.0852    0.2571 C   0  0  0  0  0  0  0  0  0  0  0  0
    0.2309    4.0267    0.1702 C   0  0  0  0  0  0  0  0  0  0  0  0
   -1.0513    3.4831    0.1897 C   0  0  0  0  0  0  0  0  0  0  0  0
   -2.4663    1.5792    0.2749 C   0  0  0  0  0  0  0  0  0  0  0  0
    3.1794    4.1406    1.4521 C   0  0  0  0  0  0  0  0  0  0  0  0
   -3.3366    3.6658    0.1682 C   0  0  0  0  0  0  0  0  0  0  0  0
   -3.6831   -0.6588   -0.1423 C   0  0  0  0  0  0  0  0  0  0  0  0
   -4.0026   -1.8444    0.5268 C   0  0  0  0  0  0  0  0  0  0  0  0
   -4.3850   -0.3106   -1.3003 C   0  0  0  0  0  0  0  0  0  0  0  0
   -5.0144   -2.6734    0.0425 C   0  0  0  0  0  0  0  0  0  0  0  0
   -5.3968   -1.1397   -1.7846 C   0  0  0  0  0  0  0  0  0  0  0  0
   -5.7114   -2.3212   -1.1131 C   0  0  0  0  0  0  0  0  0  0  0  0
    4.2820   -2.8596   -1.4288 H   0  0  0  0  0  0  0  0  0  0  0  0
    2.6293   -2.4959   -1.9216 H   0  0  0  0  0  0  0  0  0  0  0  0
    3.0825   -1.3553    1.7385 H   0  0  0  0  0  0  0  0  0  0  0  0
    4.6013   -2.0548    1.1710 H   0  0  0  0  0  0  0  0  0  0  0  0
    4.3846   -4.2855    0.2515 H   0  0  0  0  0  0  0  0  0  0  0  0
    3.3219    1.5568    0.0926 H   0  0  0  0  0  0  0  0  0  0  0  0
    2.5512    0.6408    1.3762 H   0  0  0  0  0  0  0  0  0  0  0  0
    1.1463    0.5914   -2.1328 H   0  0  0  0  0  0  0  0  0  0  0  0
    2.8319    1.0903   -2.2231 H   0  0  0  0  0  0  0  0  0  0  0  0
    2.3325   -0.5397   -2.6889 H   0  0  0  0  0  0  0  0  0  0  0  0
    2.2730   -4.1945    2.4553 H   0  0  0  0  0  0  0  0  0  0  0  0
    3.5759   -5.3786    2.3322 H   0  0  0  0  0  0  0  0  0  0  0  0
    3.9668   -3.6879    2.5969 H   0  0  0  0  0  0  0  0  0  0  0  0
    2.6034   -5.1660   -1.2482 H   0  0  0  0  0  0  0  0  0  0  0  0
    1.4744   -5.2289    0.1173 H   0  0  0  0  0  0  0  0  0  0  0  0
    2.9150   -6.2571    0.1055 H   0  0  0  0  0  0  0  0  0  0  0  0
    5.2147    0.1855    1.1593 H   0  0  0  0  0  0  0  0  0  0  0  0
    6.3120    0.8958    0.0356 H   0  0  0  0  0  0  0  0  0  0  0  0
   -0.1220    0.1832    0.3650 H   0  0  0  0  0  0  0  0  0  0  0  0
    0.3517    5.1078    0.1173 H   0  0  0  0  0  0  0  0  0  0  0  0
    2.5780    4.9055    1.9534 H   0  0  0  0  0  0  0  0  0  0  0  0
    4.1789    4.5450    1.2712 H   0  0  0  0  0  0  0  0  0  0  0  0
    3.2707    3.2574    2.0922 H   0  0  0  0  0  0  0  0  0  0  0  0
   -2.0777   -0.2727    1.0387 H   0  0  0  0  0  0  0  0  0  0  0  0
   -4.2057    4.3113    0.1319 H   0  0  0  0  0  0  0  0  0  0  0  0
   -4.1503    0.5970   -1.8503 H   0  0  0  0  0  0  0  0  0  0  0  0
   -5.9374   -0.8671   -2.6862 H   0  0  0  0  0  0  0  0  0  0  0  0
   -6.5019   -2.9575   -1.5027 H   0  0  0  0  0  0  0  0  0  0  0  0
  1 32  1  0  0  0  0
  2 30  1  0  0  0  0
  3 15  2  0  0  0  0
  4 21  1  0  0  0  0
  4 27  1  0  0  0  0
  5 12  1  0  0  0  0
  5 13  1  0  0  0  0
  5 14  1  0  0  0  0
  6 11  1  0  0  0  0
  6 16  1  0  0  0  0
  6 17  1  0  0  0  0
  7 15  1  0  0  0  0
  7 51  1  0  0  0  0
  7 52  1  0  0  0  0
  8 25  1  0  0  0  0
  8 28  2  0  0  0  0
  9 26  1  0  0  0  0
  9 29  1  0  0  0  0
  9 58  1  0  0  0  0
 10 26  2  0  0  0  0
 10 28  1  0  0  0  0
 11 12  1  0  0  0  0
 11 13  1  0  0  0  0
 11 15  1  0  0  0  0
 12 35  1  0  0  0  0
 12 36  1  0  0  0  0
 13 37  1  0  0  0  0
 13 38  1  0  0  0  0
 14 18  1  0  0  0  0
 14 19  1  0  0  0  0
 14 39  1  0  0  0  0
 16 20  1  0  0  0  0
 16 40  1  0  0  0  0
 16 41  1  0  0  0  0
 17 42  1  0  0  0  0
 17 43  1  0  0  0  0
 17 44  1  0  0  0  0
 18 45  1  0  0  0  0
 18 46  1  0  0  0  0
 18 47  1  0  0  0  0
 19 48  1  0  0  0  0
 19 49  1  0  0  0  0
 19 50  1  0  0  0  0
 20 21  1  0  0  0  0
 20 22  2  0  0  0  0
 21 24  2  0  0  0  0
 22 23  1  0  0  0  0
 22 53  1  0  0  0  0
 23 25  2  0  0  0  0
 23 26  1  0  0  0  0
 24 25  1  0  0  0  0
 24 54  1  0  0  0  0
 27 55  1  0  0  0  0
 27 56  1  0  0  0  0
 27 57  1  0  0  0  0
 28 59  1  0  0  0  0
 29 30  2  0  0  0  0
 29 31  1  0  0  0  0
 30 32  1  0  0  0  0
 31 33  2  0  0  0  0
 31 60  1  0  0  0  0
 32 34  2  0  0  0  0
 33 34  1  0  0  0  0
 33 61  1  0  0  0  0
 34 62  1  0  0  0  0
M  END
> <PUBCHEM_COMPOUND_CID>
11562171

> <PUBCHEM_CONFORMER_RMSD>
1

> <PUBCHEM_CONFORMER_DIVERSEORDER>
1
32
63
57
30
73
82
67
77
51
76
69
89
58
93
88
14
66
91
39
86
62
25
79
99
100
97
38
95
15
102
84
60
56
81
78
29
85
90
54
49
74
22
50
72
87
98
70
43
23
65
96
13
45
52
27
8
46
92
53
59
11
101
16
3
6
34
10
47
17
48
2
12
64
35
68
5
41
71
103
20
26
61
94
18
31
33
36
7
19
55
21
75
28
42
40
4
9
83
24
37
44
80

> <PUBCHEM_MMFF94_PARTIAL_CHARGES>
40
1 -0.18
10 -0.62
11 0.26
12 0.21
13 0.21
14 0.27
15 0.58
16 0.41
17 0.27
2 -0.19
20 -0.14
21 0.08
22 -0.15
24 -0.15
25 0.31
26 0.41
27 0.28
28 0.47
29 0.1
3 -0.57
30 0.19
31 -0.15
32 0.18
33 -0.15
34 -0.15
4 -0.36
5 -0.69
51 0.37
52 0.37
53 0.15
54 0.15
58 0.4
59 0.15
6 -0.75
60 0.15
61 0.15
62 0.15
7 -0.8
8 -0.62
9 -0.6

> <PUBCHEM_EFFECTIVE_ROTOR_COUNT>
8.8

> <PUBCHEM_PHARMACOPHORE_FEATURES>
13
1 3 acceptor
1 4 acceptor
1 5 cation
1 6 cation
1 7 donor
1 9 donor
3 14 18 19 hydrophobe
3 8 10 28 cation
3 9 10 26 cation
4 5 11 12 13 rings
6 20 21 22 23 24 25 rings
6 29 30 31 32 33 34 rings
6 8 10 23 25 26 28 rings

> <PUBCHEM_HEAVY_ATOM_COUNT>
34

> <PUBCHEM_ATOM_DEF_STEREO_COUNT>
0

> <PUBCHEM_ATOM_UDEF_STEREO_COUNT>
0

> <PUBCHEM_BOND_DEF_STEREO_COUNT>
0

> <PUBCHEM_BOND_UDEF_STEREO_COUNT>
0

> <PUBCHEM_ISOTOPIC_ATOM_COUNT>
0

> <PUBCHEM_COMPONENT_COUNT>
1

> <PUBCHEM_CACTVS_TAUTO_COUNT>
6

> <PUBCHEM_CONFORMER_ID>
00B06CBB00000001

> <PUBCHEM_MMFF94_ENERGY>
128.8643

> <PUBCHEM_FEATURE_SELFOVERLAP>
66.147

> <PUBCHEM_SHAPE_FINGERPRINT>
10254770 206 17397532117950324955
10622 236 17827352185652384162
10940486 97 17399529922900286014
11227688 84 18194149381064502554
114674 6 18194967580433091400
11513181 2 18126008169813932030
12969540 37 18409725166797583236
1361 2 17907300206297304171
13631057 29 18341337729946206284
14068700 686 18341328968112851680
14863182 85 18049445047497047717
15250474 111 18191866725968191158
15320467 1 18411136948212223419
15351339 4 18187914055155541179
15721738 15 18118093954374318423
17909252 39 18411138077618960169
19301676 85 18050280363597772791
19301679 30 18268999864007467187
19315092 285 17417246692728351363
19958102 18 18045209445876933861
20764821 26 18049166866775817467
20775438 99 17832658553702028021
20775530 9 18201719574424127561
21133410 171 17692195990403519967
21703447 108 18270671073556773377
23559900 14 18338226180754107401
3044373 233 18188786062249837707
3383291 50 17762615084735028139
3882209 13 17977065069140298331
4017518 198 16392669642464882678
4394409 98 17034421680121366213
463206 1 18121218671313452819
4756261 7 18118934033161252138
5309563 4 18267873950715192511
613672 6 18267848631882651283
86090 222 17907871938946674960

> <PUBCHEM_SHAPE_MULTIPOLES>
652.68
12.61
7.85
1.43
8.83
1.21
-0.27
11.79
-2.4
-1.97
3.13
-0.51
0.88
-0.07

> <PUBCHEM_SHAPE_SELFOVERLAP>
1403.139

> <PUBCHEM_SHAPE_VOLUME>
364.3

> <PUBCHEM_COORDINATE_TYPE>
2
5
10

$$$$
