49830377
  -OEChem-10052120443D

 45 48  0     0  0  0  0  0  0999 V2000
   -6.4532   -2.3432    0.4586 S   0  0  0  0  0  0  0  0  0  0  0  0
   -3.1848    0.9915    1.5116 O   0  0  0  0  0  0  0  0  0  0  0  0
    4.3178   -1.0451   -0.6635 O   0  0  0  0  0  0  0  0  0  0  0  0
   -2.1525   -0.7015    0.2569 N   0  0  0  0  0  0  0  0  0  0  0  0
    3.2760    0.6383    0.5896 N   0  0  0  0  0  0  0  0  0  0  0  0
   -7.9194   -0.5147   -0.8084 N   0  0  0  0  0  0  0  0  0  0  0  0
   -6.9602    1.6642   -1.2676 N   0  0  0  0  0  0  0  0  0  0  0  0
    5.5734    0.6471    0.3508 N   0  0  0  0  0  0  0  0  0  0  0  0
   -4.7509    2.2549   -0.6345 N   0  0  0  0  0  0  0  0  0  0  0  0
   -4.5558   -0.6140    0.5348 C   0  0  0  0  0  0  0  0  0  0  0  0
   -5.6412    0.0347   -0.1339 C   0  0  0  0  0  0  0  0  0  0  0  0
   -0.7796   -0.3634    0.3421 C   0  0  0  0  0  0  0  0  0  0  0  0
   -6.7369   -0.8128   -0.2356 C   0  0  0  0  0  0  0  0  0  0  0  0
   -3.2627   -0.0435    0.8188 C   0  0  0  0  0  0  0  0  0  0  0  0
   -4.8621   -1.9046    0.9083 C   0  0  0  0  0  0  0  0  0  0  0  0
   -5.7959    1.3124   -0.6814 C   0  0  0  0  0  0  0  0  0  0  0  0
    1.9240    0.3040    0.5069 C   0  0  0  0  0  0  0  0  0  0  0  0
   -0.3818    0.7626    1.0631 C   0  0  0  0  0  0  0  0  0  0  0  0
    0.1745   -1.1557   -0.2962 C   0  0  0  0  0  0  0  0  0  0  0  0
    0.9699    1.0964    1.1455 C   0  0  0  0  0  0  0  0  0  0  0  0
    1.5263   -0.8220   -0.2140 C   0  0  0  0  0  0  0  0  0  0  0  0
    4.3879   -0.0281    0.0191 C   0  0  0  0  0  0  0  0  0  0  0  0
   -7.9396    0.7391   -1.2946 C   0  0  0  0  0  0  0  0  0  0  0  0
    6.8982    0.3127   -0.0171 C   0  0  0  0  0  0  0  0  0  0  0  0
    7.9615    1.1083    0.4094 C   0  0  0  0  0  0  0  0  0  0  0  0
    7.1411   -0.8117   -0.8060 C   0  0  0  0  0  0  0  0  0  0  0  0
    9.2679    0.7796    0.0471 C   0  0  0  0  0  0  0  0  0  0  0  0
    8.4474   -1.1405   -1.1682 C   0  0  0  0  0  0  0  0  0  0  0  0
    9.5108   -0.3449   -0.7417 C   0  0  0  0  0  0  0  0  0  0  0  0
   -2.3484   -1.5333   -0.2968 H   0  0  0  0  0  0  0  0  0  0  0  0
   -4.2336   -2.6166    1.4260 H   0  0  0  0  0  0  0  0  0  0  0  0
   -1.0604    1.4237    1.5829 H   0  0  0  0  0  0  0  0  0  0  0  0
   -0.1234   -2.0355   -0.8611 H   0  0  0  0  0  0  0  0  0  0  0  0
    1.2670    1.9766    1.7104 H   0  0  0  0  0  0  0  0  0  0  0  0
    2.2020   -1.4849   -0.7351 H   0  0  0  0  0  0  0  0  0  0  0  0
    3.4875    1.4719    1.1324 H   0  0  0  0  0  0  0  0  0  0  0  0
   -8.8643    1.0462   -1.7707 H   0  0  0  0  0  0  0  0  0  0  0  0
    5.4786    1.4801    0.9261 H   0  0  0  0  0  0  0  0  0  0  0  0
   -4.9077    3.1664   -1.0440 H   0  0  0  0  0  0  0  0  0  0  0  0
   -3.8567    2.0449   -0.2193 H   0  0  0  0  0  0  0  0  0  0  0  0
    7.7862    1.9873    1.0244 H   0  0  0  0  0  0  0  0  0  0  0  0
    6.3738   -1.4767   -1.1755 H   0  0  0  0  0  0  0  0  0  0  0  0
   10.0959    1.3990    0.3791 H   0  0  0  0  0  0  0  0  0  0  0  0
    8.6381   -2.0159   -1.7825 H   0  0  0  0  0  0  0  0  0  0  0  0
   10.5278   -0.6009   -1.0238 H   0  0  0  0  0  0  0  0  0  0  0  0
  1 13  1  0  0  0  0
  1 15  1  0  0  0  0
  2 14  2  0  0  0  0
  3 22  2  0  0  0  0
  4 12  1  0  0  0  0
  4 14  1  0  0  0  0
  4 30  1  0  0  0  0
  5 17  1  0  0  0  0
  5 22  1  0  0  0  0
  5 36  1  0  0  0  0
  6 13  2  0  0  0  0
  6 23  1  0  0  0  0
  7 16  1  0  0  0  0
  7 23  2  0  0  0  0
  8 22  1  0  0  0  0
  8 24  1  0  0  0  0
  8 38  1  0  0  0  0
  9 16  1  0  0  0  0
  9 39  1  0  0  0  0
  9 40  1  0  0  0  0
 10 11  1  0  0  0  0
 10 14  1  0  0  0  0
 10 15  2  0  0  0  0
 11 13  1  0  0  0  0
 11 16  2  0  0  0  0
 12 18  2  0  0  0  0
 12 19  1  0  0  0  0
 15 31  1  0  0  0  0
 17 20  2  0  0  0  0
 17 21  1  0  0  0  0
 18 20  1  0  0  0  0
 18 32  1  0  0  0  0
 19 21  2  0  0  0  0
 19 33  1  0  0  0  0
 20 34  1  0  0  0  0
 21 35  1  0  0  0  0
 23 37  1  0  0  0  0
 24 25  2  0  0  0  0
 24 26  1  0  0  0  0
 25 27  1  0  0  0  0
 25 41  1  0  0  0  0
 26 28  2  0  0  0  0
 26 42  1  0  0  0  0
 27 29  2  0  0  0  0
 27 43  1  0  0  0  0
 28 29  1  0  0  0  0
 28 44  1  0  0  0  0
 29 45  1  0  0  0  0
M  END
> <PUBCHEM_COMPOUND_CID>
49830377

> <PUBCHEM_CONFORMER_RMSD>
0.8

> <PUBCHEM_CONFORMER_DIVERSEORDER>
1
23
28
16
2
36
27
30
17
22
26
8
33
31
4
24
11
20
32
12
35
21
7
15
9
14
5
13
34
3
25
29
10
6
18
19

> <PUBCHEM_MMFF94_PARTIAL_CHARGES>
44
1 -0.08
10 -0.09
12 0.12
13 0.3
14 0.72
15 -0.11
16 0.41
17 0.12
18 -0.15
19 -0.15
2 -0.57
20 -0.15
21 -0.15
22 0.69
23 0.47
24 0.12
25 -0.15
26 -0.15
27 -0.15
28 -0.15
29 -0.15
3 -0.57
30 0.37
31 0.15
32 0.15
33 0.15
34 0.15
35 0.15
36 0.37
37 0.15
38 0.37
39 0.4
4 -0.55
40 0.4
41 0.15
42 0.15
43 0.15
44 0.15
45 0.15
5 -0.55
6 -0.57
7 -0.62
8 -0.55
9 -0.9

> <PUBCHEM_EFFECTIVE_ROTOR_COUNT>
7

> <PUBCHEM_PHARMACOPHORE_FEATURES>
13
1 2 acceptor
1 3 acceptor
1 4 donor
1 5 donor
1 6 acceptor
1 8 donor
1 9 cation
1 9 donor
3 6 7 23 cation
5 1 10 11 13 15 rings
6 12 17 18 19 20 21 rings
6 24 25 26 27 28 29 rings
6 6 7 11 13 16 23 rings

> <PUBCHEM_HEAVY_ATOM_COUNT>
29

> <PUBCHEM_ATOM_DEF_STEREO_COUNT>
0

> <PUBCHEM_ATOM_UDEF_STEREO_COUNT>
0

> <PUBCHEM_BOND_DEF_STEREO_COUNT>
0

> <PUBCHEM_BOND_UDEF_STEREO_COUNT>
0

> <PUBCHEM_ISOTOPIC_ATOM_COUNT>
0

> <PUBCHEM_COMPONENT_COUNT>
1

> <PUBCHEM_CACTVS_TAUTO_COUNT>
24

> <PUBCHEM_CONFORMER_ID>
02F859E900000001

> <PUBCHEM_MMFF94_ENERGY>
94.7587

> <PUBCHEM_FEATURE_SELFOVERLAP>
66.101

> <PUBCHEM_SHAPE_FINGERPRINT>
10050765 1 17842007593919603466
106641 1 12103842359376651858
10669705 176 18410012117851723830
11135926 11 18131641066967423275
11181472 205 17095803210128497500
11315181 36 18342461448204659827
11638347 137 11743847950444547124
11672396 167 18128822933515524934
12082328 90 17988926639182450493
12089408 11 16298385782244203922
12539745 222 14490775467936721601
12758862 11 18410572928600306528
12838862 33 18131339818419867034
13553643 46 13623530182412192950
13885169 127 18334013895509071130
13974486 27 18187649166620894213
14251764 18 16805321093986459936
14251764 46 14549023182136739370
14617042 71 13623829267240139742
150020 25 18412259536772757052
15131766 46 17755307013567348668
15183329 4 18187081732772946393
15198563 99 18342182107738245316
15328684 2 16951388963180031136
15419008 47 18343013398125428888
15419008 91 18339626932761544136
15461852 350 18259989296480579079
15510794 2 18413673521326226831
1577012 14 17312814970388770411
15849732 13 18413108381540254476
15979999 66 18410013264814785556
1754908 1 11815895644113359582
1818759 1 15267345132585576164
19315958 150 12035447238813699280
195137 175 16298389063082136558
19841028 212 18187643554142545098
21150785 3 17275101730420411220
21267235 1 18060145361977982986
21792961 116 18272371953451121634
23576562 1 18116432733352347701
249057 3 17822295720891465254
3092352 35 16153426159994186962
335352 9 17917714622059176804
395649 100 18272091565592267169
4339292 15 10375858668520216937
44802255 64 18187636987137165991
5219985 9 15698283313413314474
54039377 194 16845285073513235397
5758199 1 15719109158617549704
5969126 39 17060340690834831097
6081469 158 18412263918419757244
6201320 215 16951109678557065836
6691757 9 16298395660558365129
67123 10 18341614841446958774
68570916 9 10663515124854477928
9962374 69 16486963025497344360

> <PUBCHEM_SHAPE_MULTIPOLES>
559.03
32.7
1.7
1.12
41.61
0.13
0.02
0.07
10.84
-2.88
0.07
-0.72
-0.16
2.59

> <PUBCHEM_SHAPE_SELFOVERLAP>
1219.919

> <PUBCHEM_SHAPE_VOLUME>
302.5

> <PUBCHEM_COORDINATE_TYPE>
2
5
10

$$$$
