5329032
  -OEChem-10052120443D

 45 48  0     0  0  0  0  0  0999 V2000
    8.3371   -1.7640   -0.3627 Br  0  0  0  0  0  0  0  0  0  0  0  0
    4.0566    1.0792   -1.2482 F   0  0  0  0  0  0  0  0  0  0  0  0
   -3.5785    1.0522   -0.8811 O   0  0  0  0  0  0  0  0  0  0  0  0
   -2.2911   -1.4072   -0.7569 O   0  0  0  0  0  0  0  0  0  0  0  0
    2.4913   -0.3341    0.5684 N   0  0  0  0  0  0  0  0  0  0  0  0
   -5.8546   -0.4170    0.1846 N   0  0  0  0  0  0  0  0  0  0  0  0
    0.4569    3.2634    0.3462 N   0  0  0  0  0  0  0  0  0  0  0  0
    2.4733    2.0108    0.7612 N   0  0  0  0  0  0  0  0  0  0  0  0
   -5.6645   -1.2650   -0.8255 N   0  0  0  0  0  0  0  0  0  0  0  0
   -5.7276   -2.4874   -0.3093 N   0  0  0  0  0  0  0  0  0  0  0  0
    0.4327    0.8741    0.1391 C   0  0  0  0  0  0  0  0  0  0  0  0
   -0.2053    2.1239    0.0796 C   0  0  0  0  0  0  0  0  0  0  0  0
   -2.2599    0.9752   -0.5471 C   0  0  0  0  0  0  0  0  0  0  0  0
   -1.6172   -0.2562   -0.4847 C   0  0  0  0  0  0  0  0  0  0  0  0
   -0.2698   -0.3107   -0.1417 C   0  0  0  0  0  0  0  0  0  0  0  0
    1.7803    0.8892    0.4881 C   0  0  0  0  0  0  0  0  0  0  0  0
   -1.5542    2.1491   -0.2664 C   0  0  0  0  0  0  0  0  0  0  0  0
   -4.4578    1.6317    0.0806 C   0  0  0  0  0  0  0  0  0  0  0  0
   -5.8465    1.0234   -0.0617 C   0  0  0  0  0  0  0  0  0  0  0  0
    3.8390   -0.6622    0.3524 C   0  0  0  0  0  0  0  0  0  0  0  0
    1.7598    3.1450    0.6728 C   0  0  0  0  0  0  0  0  0  0  0  0
    4.6041    0.0635   -0.5655 C   0  0  0  0  0  0  0  0  0  0  0  0
    4.4253   -1.7186    1.0559 C   0  0  0  0  0  0  0  0  0  0  0  0
   -6.0449   -1.0372    1.3668 C   0  0  0  0  0  0  0  0  0  0  0  0
    5.9432   -0.2642   -0.7780 C   0  0  0  0  0  0  0  0  0  0  0  0
    5.7643   -2.0463    0.8433 C   0  0  0  0  0  0  0  0  0  0  0  0
   -1.5553   -2.6264   -0.6694 C   0  0  0  0  0  0  0  0  0  0  0  0
    6.5233   -1.3189   -0.0735 C   0  0  0  0  0  0  0  0  0  0  0  0
   -5.9600   -2.3654    1.0325 C   0  0  0  0  0  0  0  0  0  0  0  0
    0.2670   -1.2502   -0.0946 H   0  0  0  0  0  0  0  0  0  0  0  0
   -2.0644    3.1092   -0.3267 H   0  0  0  0  0  0  0  0  0  0  0  0
   -4.5126    2.7112   -0.0981 H   0  0  0  0  0  0  0  0  0  0  0  0
   -4.0842    1.4640    1.0994 H   0  0  0  0  0  0  0  0  0  0  0  0
   -6.2354    1.1702   -1.0761 H   0  0  0  0  0  0  0  0  0  0  0  0
   -6.5466    1.4792    0.6467 H   0  0  0  0  0  0  0  0  0  0  0  0
    1.9815   -1.0532    1.0744 H   0  0  0  0  0  0  0  0  0  0  0  0
    2.2878    4.0665    0.8860 H   0  0  0  0  0  0  0  0  0  0  0  0
    3.8465   -2.2938    1.7743 H   0  0  0  0  0  0  0  0  0  0  0  0
   -6.2147   -0.5207    2.3007 H   0  0  0  0  0  0  0  0  0  0  0  0
    6.5202    0.3126   -1.4961 H   0  0  0  0  0  0  0  0  0  0  0  0
    6.2012   -2.8712    1.4003 H   0  0  0  0  0  0  0  0  0  0  0  0
   -0.7492   -2.6661   -1.4100 H   0  0  0  0  0  0  0  0  0  0  0  0
   -2.2494   -3.4376   -0.9132 H   0  0  0  0  0  0  0  0  0  0  0  0
   -1.1987   -2.8113    0.3497 H   0  0  0  0  0  0  0  0  0  0  0  0
   -6.0519   -3.2263    1.6772 H   0  0  0  0  0  0  0  0  0  0  0  0
  1 28  1  0  0  0  0
  2 22  1  0  0  0  0
  3 13  1  0  0  0  0
  3 18  1  0  0  0  0
  4 14  1  0  0  0  0
  4 27  1  0  0  0  0
  5 16  1  0  0  0  0
  5 20  1  0  0  0  0
  5 36  1  0  0  0  0
  6  9  1  0  0  0  0
  6 19  1  0  0  0  0
  6 24  1  0  0  0  0
  7 12  1  0  0  0  0
  7 21  2  0  0  0  0
  8 16  2  0  0  0  0
  8 21  1  0  0  0  0
  9 10  2  0  0  0  0
 10 29  1  0  0  0  0
 11 12  1  0  0  0  0
 11 15  2  0  0  0  0
 11 16  1  0  0  0  0
 12 17  2  0  0  0  0
 13 14  2  0  0  0  0
 13 17  1  0  0  0  0
 14 15  1  0  0  0  0
 15 30  1  0  0  0  0
 17 31  1  0  0  0  0
 18 19  1  0  0  0  0
 18 32  1  0  0  0  0
 18 33  1  0  0  0  0
 19 34  1  0  0  0  0
 19 35  1  0  0  0  0
 20 22  2  0  0  0  0
 20 23  1  0  0  0  0
 21 37  1  0  0  0  0
 22 25  1  0  0  0  0
 23 26  2  0  0  0  0
 23 38  1  0  0  0  0
 24 29  2  0  0  0  0
 24 39  1  0  0  0  0
 25 28  2  0  0  0  0
 25 40  1  0  0  0  0
 26 28  1  0  0  0  0
 26 41  1  0  0  0  0
 27 42  1  0  0  0  0
 27 43  1  0  0  0  0
 27 44  1  0  0  0  0
 29 45  1  0  0  0  0
M  END
> <PUBCHEM_COMPOUND_CID>
5329032

> <PUBCHEM_CONFORMER_RMSD>
1

> <PUBCHEM_CONFORMER_DIVERSEORDER>
8
687
561
476
538
302
211
35
652
626
108
413
293
131
579
454
565
665
360
378
592
151
682
325
318
599
61
243
265
528
82
390
598
637
511
115
497
77
551
502
504
647
544
117
145
114
491
268
47
404
583
112
382
564
25
202
482
569
445
421
36
677
78
127
615
346
126
173
606
241
570
72
199
640
545
122
289
79
424
493
539
304
113
303
628
393
39
559
104
250
604
164
85
257
508
567
110
53
198
242
548
208
578
462
515
86
98
90
580
290
213
196
676
317
197
48
203
384
120
239
207
49
436
69
182
123
15
222
63
134
100
521
427
17
50
369
156
10
20
411
6
26
9
7
11
13
42
59
4
2
3
23
5
1

> <PUBCHEM_MMFF94_PARTIAL_CHARGES>
37
1 -0.11
10 -0.23
12 0.31
13 0.08
14 0.08
15 -0.15
16 0.41
17 -0.15
18 0.28
19 0.26
2 -0.19
20 0.1
21 0.47
22 0.19
23 -0.15
24 -0.3
25 -0.15
26 -0.15
27 0.28
28 0.11
29 0.08
3 -0.36
30 0.15
31 0.15
36 0.4
37 0.15
38 0.15
39 0.15
4 -0.36
40 0.15
41 0.15
45 0.15
5 -0.6
6 0.31
7 -0.62
8 -0.62
9 -0.42

> <PUBCHEM_EFFECTIVE_ROTOR_COUNT>
7

> <PUBCHEM_PHARMACOPHORE_FEATURES>
10
1 1 hydrophobe
1 3 acceptor
1 4 acceptor
1 5 donor
3 5 8 16 cation
3 7 8 21 cation
5 6 9 10 24 29 rings
6 11 12 13 14 15 17 rings
6 20 22 23 25 26 28 rings
6 7 8 11 12 16 21 rings

> <PUBCHEM_HEAVY_ATOM_COUNT>
29

> <PUBCHEM_ATOM_DEF_STEREO_COUNT>
0

> <PUBCHEM_ATOM_UDEF_STEREO_COUNT>
0

> <PUBCHEM_BOND_DEF_STEREO_COUNT>
0

> <PUBCHEM_BOND_UDEF_STEREO_COUNT>
0

> <PUBCHEM_ISOTOPIC_ATOM_COUNT>
0

> <PUBCHEM_COMPONENT_COUNT>
1

> <PUBCHEM_CACTVS_TAUTO_COUNT>
3

> <PUBCHEM_CONFORMER_ID>
0051508800000008

> <PUBCHEM_MMFF94_ENERGY>
98.9477

> <PUBCHEM_FEATURE_SELFOVERLAP>
50.922

> <PUBCHEM_SHAPE_FINGERPRINT>
10299344 5 18260833678461050954
11524674 6 17275099527086845695
11607047 403 15546524552772693651
11646440 116 17560801013720046226
11756154 67 18410013234458785862
12035758 1 17917996074448136958
12107183 9 18343589538634669659
12166972 35 17967818241086052324
12236239 1 18114184082298368228
12422481 6 17632580457170340583
12553582 1 18340751664399429638
13540713 4 18266717204053082325
13673619 4 18333732424616500269
13690498 29 18259979353662918245
13782708 43 18186516618155962131
14251764 30 18335138687135139785
14420673 8 18411420601042704075
14866123 147 18342735265065752031
14955137 171 18342736325600342385
15021287 119 17988920102611225117
15183329 4 18412260640463327207
15927050 60 17838052968364115900
16120349 21 18272939305978350675
18608769 82 18410855451828916802
19319366 153 18040147423176224314
20028762 73 18060133288989113655
21267235 1 18410857654861731304
21682296 61 18413109476820354503
22950370 63 18408322172579834849
23522609 53 18121250703391452277
23559900 14 18342726426455079672
23569914 152 12256061982756535315
2747138 104 18201151071463082480
2748736 6 9223235126446330763
3004659 81 18260546702432788590
335352 9 18340480072327675045
3383291 50 18411979169723983954
34797466 226 17775282730777996692
4093350 32 16702026430950349800
4169191 19 10807933747616074731
437815 12 18412266137963086803
439807 62 18259704488635529383
465052 167 18343586248241217356
484989 97 18114754818885254586
5104073 3 18201720678357726649
54039377 194 18410016507878331038
563151 74 16557043779074583768
636775 8 18341340981838148294
7495541 125 18410293626972102861
8863177 126 18336828701274367611
999808 66 18334583438374799435

> <PUBCHEM_SHAPE_MULTIPOLES>
553.85
19.5
3.28
1.01
9.56
0.94
0.08
-15.6
0.32
-1.51
0.47
-0.08
-0.22
0.24

> <PUBCHEM_SHAPE_SELFOVERLAP>
1198.846

> <PUBCHEM_SHAPE_VOLUME>
310.8

> <PUBCHEM_COORDINATE_TYPE>
2
5
10

$$$$
