44411183
  -OEChem-10062122003D

 68 71  0     1  0  0  0  0  0999 V2000
    6.4121   -4.5855   -1.1604 Cl  0  0  0  0  0  0  0  0  0  0  0  0
    4.4327   -2.5116   -1.8777 F   0  0  0  0  0  0  0  0  0  0  0  0
   -4.7174    1.3912   -1.2538 O   0  0  0  0  0  0  0  0  0  0  0  0
   -1.5136    3.4009   -0.2678 O   0  0  0  0  0  0  0  0  0  0  0  0
   -5.4103   -2.3138   -0.0023 N   0  0  0  0  0  0  0  0  0  0  0  0
   -2.1398    0.3178    0.5189 N   0  0  2  0  0  0  0  0  0  0  0  0
   -4.2624    2.1175    0.8815 N   0  0  0  0  0  0  0  0  0  0  0  0
    3.2067    3.7615    0.2266 N   0  0  0  0  0  0  0  0  0  0  0  0
    3.6968   -0.3027   -0.3824 N   0  0  0  0  0  0  0  0  0  0  0  0
    4.6204    1.8186    0.0444 N   0  0  0  0  0  0  0  0  0  0  0  0
   -3.5133   -0.0787    0.2094 C   0  0  0  0  0  0  0  0  0  0  0  0
   -3.5206   -1.0458   -0.9810 C   0  0  0  0  0  0  0  0  0  0  0  0
   -4.1551   -0.7363    1.4375 C   0  0  0  0  0  0  0  0  0  0  0  0
   -4.9067   -1.6579   -1.2161 C   0  0  0  0  0  0  0  0  0  0  0  0
   -5.5168   -1.3604    1.1100 C   0  0  0  0  0  0  0  0  0  0  0  0
   -6.7048   -2.9440   -0.2613 C   0  0  0  0  0  0  0  0  0  0  0  0
   -4.2298    1.2005   -0.1423 C   0  0  0  0  0  0  0  0  0  0  0  0
   -1.3934    0.5748   -0.7118 C   0  0  0  0  0  0  0  0  0  0  0  0
   -1.4771   -0.7155    1.3132 C   0  0  0  0  0  0  0  0  0  0  0  0
   -7.8161   -1.8983   -0.2397 C   0  0  0  0  0  0  0  0  0  0  0  0
   -6.9566   -4.0327    0.7770 C   0  0  0  0  0  0  0  0  0  0  0  0
   -0.1764    1.4253   -0.4623 C   0  0  0  0  0  0  0  0  0  0  0  0
   -0.2931    2.7949   -0.2526 C   0  0  0  0  0  0  0  0  0  0  0  0
    1.0822    0.8325   -0.4413 C   0  0  0  0  0  0  0  0  0  0  0  0
    2.2252    1.6173   -0.2094 C   0  0  0  0  0  0  0  0  0  0  0  0
    0.8484    3.5685   -0.0225 C   0  0  0  0  0  0  0  0  0  0  0  0
    2.1202    3.0015    0.0038 C   0  0  0  0  0  0  0  0  0  0  0  0
    3.5118    1.0871   -0.1758 C   0  0  0  0  0  0  0  0  0  0  0  0
   -1.5400    4.8090   -0.0435 C   0  0  0  0  0  0  0  0  0  0  0  0
    4.3975    3.1289    0.2349 C   0  0  0  0  0  0  0  0  0  0  0  0
    4.6589   -1.2104    0.0878 C   0  0  0  0  0  0  0  0  0  0  0  0
    5.0136   -2.3168   -0.6838 C   0  0  0  0  0  0  0  0  0  0  0  0
    5.2601   -1.0042    1.3295 C   0  0  0  0  0  0  0  0  0  0  0  0
    5.9696   -3.2172   -0.2139 C   0  0  0  0  0  0  0  0  0  0  0  0
    6.2162   -1.9046    1.7995 C   0  0  0  0  0  0  0  0  0  0  0  0
    6.5709   -3.0112    1.0277 C   0  0  0  0  0  0  0  0  0  0  0  0
   -2.8259   -1.8815   -0.8266 H   0  0  0  0  0  0  0  0  0  0  0  0
   -3.2382   -0.5740   -1.9303 H   0  0  0  0  0  0  0  0  0  0  0  0
   -4.2726   -0.0480    2.2827 H   0  0  0  0  0  0  0  0  0  0  0  0
   -3.5809   -1.5910    1.8136 H   0  0  0  0  0  0  0  0  0  0  0  0
   -5.5965   -0.8959   -1.5917 H   0  0  0  0  0  0  0  0  0  0  0  0
   -4.8031   -2.4033   -2.0153 H   0  0  0  0  0  0  0  0  0  0  0  0
   -5.8743   -1.8517    2.0217 H   0  0  0  0  0  0  0  0  0  0  0  0
   -6.1924   -0.5238    0.8981 H   0  0  0  0  0  0  0  0  0  0  0  0
   -6.6918   -3.4371   -1.2420 H   0  0  0  0  0  0  0  0  0  0  0  0
   -1.9824    1.1310   -1.4535 H   0  0  0  0  0  0  0  0  0  0  0  0
   -1.0800   -0.3512   -1.2143 H   0  0  0  0  0  0  0  0  0  0  0  0
   -0.4119   -0.4906    1.4379 H   0  0  0  0  0  0  0  0  0  0  0  0
   -1.5261   -1.7231    0.8873 H   0  0  0  0  0  0  0  0  0  0  0  0
   -1.8344   -0.7235    2.3493 H   0  0  0  0  0  0  0  0  0  0  0  0
   -8.0668   -1.5459    0.7672 H   0  0  0  0  0  0  0  0  0  0  0  0
   -7.6247   -1.0372   -0.8866 H   0  0  0  0  0  0  0  0  0  0  0  0
   -8.7364   -2.3588   -0.6221 H   0  0  0  0  0  0  0  0  0  0  0  0
   -7.0961   -3.6389    1.7886 H   0  0  0  0  0  0  0  0  0  0  0  0
   -6.1298   -4.7515    0.8022 H   0  0  0  0  0  0  0  0  0  0  0  0
   -7.8651   -4.5905    0.5226 H   0  0  0  0  0  0  0  0  0  0  0  0
   -3.7948    1.9687    1.7695 H   0  0  0  0  0  0  0  0  0  0  0  0
   -4.7195    3.0150    0.7586 H   0  0  0  0  0  0  0  0  0  0  0  0
    1.1562   -0.2402   -0.6005 H   0  0  0  0  0  0  0  0  0  0  0  0
    0.8101    4.6409    0.1467 H   0  0  0  0  0  0  0  0  0  0  0  0
   -2.5888    5.1210   -0.0901 H   0  0  0  0  0  0  0  0  0  0  0  0
   -1.0131    5.3549   -0.8335 H   0  0  0  0  0  0  0  0  0  0  0  0
   -1.1789    5.0661    0.9581 H   0  0  0  0  0  0  0  0  0  0  0  0
    3.1628   -0.6603   -1.1699 H   0  0  0  0  0  0  0  0  0  0  0  0
    5.2688    3.7467    0.4152 H   0  0  0  0  0  0  0  0  0  0  0  0
    4.9909   -0.1583    1.9562 H   0  0  0  0  0  0  0  0  0  0  0  0
    6.6821   -1.7461    2.7677 H   0  0  0  0  0  0  0  0  0  0  0  0
    7.3169   -3.7047    1.4073 H   0  0  0  0  0  0  0  0  0  0  0  0
  1 34  1  0  0  0  0
  2 32  1  0  0  0  0
  3 17  2  0  0  0  0
  4 23  1  0  0  0  0
  4 29  1  0  0  0  0
  5 14  1  0  0  0  0
  5 15  1  0  0  0  0
  5 16  1  0  0  0  0
  6 11  1  0  0  0  0
  6 18  1  0  0  0  0
  6 19  1  0  0  0  0
  7 17  1  0  0  0  0
  7 57  1  0  0  0  0
  7 58  1  0  0  0  0
  8 27  1  0  0  0  0
  8 30  2  0  0  0  0
  9 28  1  0  0  0  0
  9 31  1  0  0  0  0
  9 64  1  0  0  0  0
 10 28  2  0  0  0  0
 10 30  1  0  0  0  0
 11 12  1  0  0  0  0
 11 13  1  0  0  0  0
 11 17  1  0  0  0  0
 12 14  1  0  0  0  0
 12 37  1  0  0  0  0
 12 38  1  0  0  0  0
 13 15  1  0  0  0  0
 13 39  1  0  0  0  0
 13 40  1  0  0  0  0
 14 41  1  0  0  0  0
 14 42  1  0  0  0  0
 15 43  1  0  0  0  0
 15 44  1  0  0  0  0
 16 20  1  0  0  0  0
 16 21  1  0  0  0  0
 16 45  1  0  0  0  0
 18 22  1  0  0  0  0
 18 46  1  0  0  0  0
 18 47  1  0  0  0  0
 19 48  1  0  0  0  0
 19 49  1  0  0  0  0
 19 50  1  0  0  0  0
 20 51  1  0  0  0  0
 20 52  1  0  0  0  0
 20 53  1  0  0  0  0
 21 54  1  0  0  0  0
 21 55  1  0  0  0  0
 21 56  1  0  0  0  0
 22 23  1  0  0  0  0
 22 24  2  0  0  0  0
 23 26  2  0  0  0  0
 24 25  1  0  0  0  0
 24 59  1  0  0  0  0
 25 27  2  0  0  0  0
 25 28  1  0  0  0  0
 26 27  1  0  0  0  0
 26 60  1  0  0  0  0
 29 61  1  0  0  0  0
 29 62  1  0  0  0  0
 29 63  1  0  0  0  0
 30 65  1  0  0  0  0
 31 32  2  0  0  0  0
 31 33  1  0  0  0  0
 32 34  1  0  0  0  0
 33 35  2  0  0  0  0
 33 66  1  0  0  0  0
 34 36  2  0  0  0  0
 35 36  1  0  0  0  0
 35 67  1  0  0  0  0
 36 68  1  0  0  0  0
M  END
> <PUBCHEM_COMPOUND_CID>
44411183

> <PUBCHEM_CONFORMER_RMSD>
1.2

> <PUBCHEM_CONFORMER_DIVERSEORDER>
1
62
47
41
93
85
27
43
57
38
42
89
60
30
35
44
55
87
68
75
81
33
22
34
92
32
16
28
95
23
66
73
54
83
71
96
36
86
72
53
67
19
15
29
8
88
48
65
4
40
37
91
79
46
94
26
18
90
17
70
63
20
45
74
76
5
80
51
9
64
21
78
24
77
39
56
52
25
7
49
31
59
14
13
11
84
3
69
10
12
82
2
61
58
50
6

> <PUBCHEM_MMFF94_PARTIAL_CHARGES>
40
1 -0.18
10 -0.62
11 0.33
14 0.27
15 0.27
16 0.27
17 0.57
18 0.41
19 0.27
2 -0.19
22 -0.14
23 0.08
24 -0.15
26 -0.15
27 0.31
28 0.41
29 0.28
3 -0.57
30 0.47
31 0.1
32 0.19
33 -0.15
34 0.18
35 -0.15
36 -0.15
4 -0.36
5 -0.81
57 0.37
58 0.37
59 0.15
6 -0.81
60 0.15
64 0.4
65 0.15
66 0.15
67 0.15
68 0.15
7 -0.8
8 -0.62
9 -0.6

> <PUBCHEM_EFFECTIVE_ROTOR_COUNT>
9.2

> <PUBCHEM_PHARMACOPHORE_FEATURES>
13
1 3 acceptor
1 4 acceptor
1 5 cation
1 6 cation
1 7 donor
1 9 donor
3 16 20 21 hydrophobe
3 8 10 30 cation
3 9 10 28 cation
6 22 23 24 25 26 27 rings
6 31 32 33 34 35 36 rings
6 5 11 12 13 14 15 rings
6 8 10 25 27 28 30 rings

> <PUBCHEM_HEAVY_ATOM_COUNT>
36

> <PUBCHEM_ATOM_DEF_STEREO_COUNT>
0

> <PUBCHEM_ATOM_UDEF_STEREO_COUNT>
0

> <PUBCHEM_BOND_DEF_STEREO_COUNT>
0

> <PUBCHEM_BOND_UDEF_STEREO_COUNT>
0

> <PUBCHEM_ISOTOPIC_ATOM_COUNT>
0

> <PUBCHEM_COMPONENT_COUNT>
1

> <PUBCHEM_CACTVS_TAUTO_COUNT>
6

> <PUBCHEM_CONFORMER_ID>
02A5A92F00000001

> <PUBCHEM_MMFF94_ENERGY>
132.3267

> <PUBCHEM_FEATURE_SELFOVERLAP>
66.144

> <PUBCHEM_SHAPE_FINGERPRINT>
10050765 1 18410011039889526029
11135926 11 18266447888803591668
11409948 41 18126833023390226303
117089 54 18411423877971421358
11963148 33 17978506756475485471
12107183 9 18198634232911635297
12422481 6 17632009741942486774
13533116 47 18338517572551361129
1361 4 18265052625316505451
1361 87 17604167985576451866
13782708 43 18113899385959236659
13911852 28 18410575115076185005
13989917 61 18338517568357595002
14118638 360 18341618177993508761
14347332 77 18409729543099719161
14866123 147 18121783828991444753
14910700 183 17910099554475588208
15361156 5 18261971651916588676
15513586 35 13539882652921224930
17492 89 18411419488667409924
19301676 85 17545315281338132015
19301679 30 18411980273413839177
19303781 99 18337373973443871542
19304671 126 12468360124839514914
19315092 285 18131353029148309656
1979834 28 17489873713551924014
19841028 212 18336547239663392939
208703 8 18409442579118361794
21130935 74 18340492283114687939
21703447 108 18336254700803117240
23559900 14 18335976498132809512
23569914 152 17979320155315570511
23569943 247 18333730187577492995
2748736 6 9583226211538517958
3383291 50 17907298745502378672
3991529 202 18117866476317401603
4461854 278 17989202686149337646
474113 269 18342731928244934639
50009960 94 18188187850620008842
5104073 3 18202003243881655369
513202 73 18408888421674534665
5718773 13 18408601478856829259
6058803 2 18266200403502462812
70251023 43 18409166619216769304
9555976 147 17417545626741852531

> <PUBCHEM_SHAPE_MULTIPOLES>
693.83
20.15
6.36
1.24
6.28
1.52
-0.13
-29.2
-1.64
-4.13
0.58
-0.5
-0.92
1.12

> <PUBCHEM_SHAPE_SELFOVERLAP>
1489.511

> <PUBCHEM_SHAPE_VOLUME>
386.6

> <PUBCHEM_COORDINATE_TYPE>
2
5
10

$$$$
