44410844
  -OEChem-10062122013D

 47 50  0     0  0  0  0  0  0999 V2000
    6.2760   -2.3014   -1.2945 Cl  0  0  0  0  0  0  0  0  0  0  0  0
    3.6219   -1.2197   -2.0126 F   0  0  0  0  0  0  0  0  0  0  0  0
   -4.3912    1.2949   -0.4607 O   0  0  0  0  0  0  0  0  0  0  0  0
   -3.6280   -1.8222   -0.0164 N   0  0  0  0  0  0  0  0  0  0  0  0
   -0.3415    3.6002    0.5091 N   0  0  0  0  0  0  0  0  0  0  0  0
    1.9169    0.2548   -0.4056 N   0  0  0  0  0  0  0  0  0  0  0  0
    1.7905    2.4982    0.2918 N   0  0  0  0  0  0  0  0  0  0  0  0
   -4.6790   -2.7474   -0.4394 C   0  0  0  0  0  0  0  0  0  0  0  0
   -2.6686   -2.6472    0.7170 C   0  0  0  0  0  0  0  0  0  0  0  0
   -4.8845   -3.6168    0.7922 C   0  0  0  0  0  0  0  0  0  0  0  0
   -3.5645   -3.5482    1.5540 C   0  0  0  0  0  0  0  0  0  0  0  0
   -3.0175   -1.1244   -1.1382 C   0  0  0  0  0  0  0  0  0  0  0  0
   -2.3128    0.1322   -0.7004 C   0  0  0  0  0  0  0  0  0  0  0  0
   -0.9243    0.1446   -0.6124 C   0  0  0  0  0  0  0  0  0  0  0  0
   -3.0307    1.2799   -0.3831 C   0  0  0  0  0  0  0  0  0  0  0  0
   -0.2563    1.3123   -0.2049 C   0  0  0  0  0  0  0  0  0  0  0  0
   -2.3590    2.4372    0.0214 C   0  0  0  0  0  0  0  0  0  0  0  0
   -0.9702    2.4778    0.1183 C   0  0  0  0  0  0  0  0  0  0  0  0
    1.1292    1.3914   -0.0961 C   0  0  0  0  0  0  0  0  0  0  0  0
    1.0046    3.5494    0.5747 C   0  0  0  0  0  0  0  0  0  0  0  0
   -5.0457    2.5145   -0.1170 C   0  0  0  0  0  0  0  0  0  0  0  0
    3.1574   -0.1964    0.0722 C   0  0  0  0  0  0  0  0  0  0  0  0
    3.9997   -0.9384   -0.7561 C   0  0  0  0  0  0  0  0  0  0  0  0
    3.5469    0.0986    1.3787 C   0  0  0  0  0  0  0  0  0  0  0  0
    5.2314   -1.3852   -0.2777 C   0  0  0  0  0  0  0  0  0  0  0  0
    4.7785   -0.3483    1.8570 C   0  0  0  0  0  0  0  0  0  0  0  0
    5.6208   -1.0903    1.0288 C   0  0  0  0  0  0  0  0  0  0  0  0
   -4.3544   -3.3695   -1.2835 H   0  0  0  0  0  0  0  0  0  0  0  0
   -5.5993   -2.2266   -0.7225 H   0  0  0  0  0  0  0  0  0  0  0  0
   -2.0023   -2.0541    1.3513 H   0  0  0  0  0  0  0  0  0  0  0  0
   -2.0563   -3.2620    0.0447 H   0  0  0  0  0  0  0  0  0  0  0  0
   -5.1419   -4.6452    0.5189 H   0  0  0  0  0  0  0  0  0  0  0  0
   -5.6941   -3.2221    1.4171 H   0  0  0  0  0  0  0  0  0  0  0  0
   -3.7323   -3.1159    2.5475 H   0  0  0  0  0  0  0  0  0  0  0  0
   -3.1224   -4.5404    1.6898 H   0  0  0  0  0  0  0  0  0  0  0  0
   -3.7901   -0.8243   -1.8604 H   0  0  0  0  0  0  0  0  0  0  0  0
   -2.3423   -1.7758   -1.7100 H   0  0  0  0  0  0  0  0  0  0  0  0
   -0.3801   -0.7647   -0.8545 H   0  0  0  0  0  0  0  0  0  0  0  0
   -2.8736    3.3584    0.2798 H   0  0  0  0  0  0  0  0  0  0  0  0
    1.6323   -0.2011   -1.2684 H   0  0  0  0  0  0  0  0  0  0  0  0
    1.5051    4.4567    0.8904 H   0  0  0  0  0  0  0  0  0  0  0  0
   -6.1213    2.3454   -0.2352 H   0  0  0  0  0  0  0  0  0  0  0  0
   -4.7767    3.3254   -0.8025 H   0  0  0  0  0  0  0  0  0  0  0  0
   -4.8818    2.7799    0.9330 H   0  0  0  0  0  0  0  0  0  0  0  0
    2.9032    0.6624    2.0487 H   0  0  0  0  0  0  0  0  0  0  0  0
    5.0804   -0.1216    2.8753 H   0  0  0  0  0  0  0  0  0  0  0  0
    6.5773   -1.4324    1.4157 H   0  0  0  0  0  0  0  0  0  0  0  0
  1 25  1  0  0  0  0
  2 23  1  0  0  0  0
  3 15  1  0  0  0  0
  3 21  1  0  0  0  0
  4  8  1  0  0  0  0
  4  9  1  0  0  0  0
  4 12  1  0  0  0  0
  5 18  1  0  0  0  0
  5 20  2  0  0  0  0
  6 19  1  0  0  0  0
  6 22  1  0  0  0  0
  6 40  1  0  0  0  0
  7 19  2  0  0  0  0
  7 20  1  0  0  0  0
  8 10  1  0  0  0  0
  8 28  1  0  0  0  0
  8 29  1  0  0  0  0
  9 11  1  0  0  0  0
  9 30  1  0  0  0  0
  9 31  1  0  0  0  0
 10 11  1  0  0  0  0
 10 32  1  0  0  0  0
 10 33  1  0  0  0  0
 11 34  1  0  0  0  0
 11 35  1  0  0  0  0
 12 13  1  0  0  0  0
 12 36  1  0  0  0  0
 12 37  1  0  0  0  0
 13 14  2  0  0  0  0
 13 15  1  0  0  0  0
 14 16  1  0  0  0  0
 14 38  1  0  0  0  0
 15 17  2  0  0  0  0
 16 18  2  0  0  0  0
 16 19  1  0  0  0  0
 17 18  1  0  0  0  0
 17 39  1  0  0  0  0
 20 41  1  0  0  0  0
 21 42  1  0  0  0  0
 21 43  1  0  0  0  0
 21 44  1  0  0  0  0
 22 23  2  0  0  0  0
 22 24  1  0  0  0  0
 23 25  1  0  0  0  0
 24 26  2  0  0  0  0
 24 45  1  0  0  0  0
 25 27  2  0  0  0  0
 26 27  1  0  0  0  0
 26 46  1  0  0  0  0
 27 47  1  0  0  0  0
M  END
> <PUBCHEM_COMPOUND_CID>
44410844

> <PUBCHEM_CONFORMER_RMSD>
0.8

> <PUBCHEM_CONFORMER_DIVERSEORDER>
1
79
53
85
39
18
19
32
38
100
104
6
11
71
112
41
30
84
54
86
82
106
96
56
57
43
34
89
52
33
45
102
23
99
13
65
61
97
16
67
87
107
51
35
103
111
20
78
66
3
108
49
74
88
44
5
55
7
81
47
29
40
15
77
73
2
68
58
70
36
48
10
83
72
26
14
95
76
109
110
105
12
24
25
75
69
46
60
27
4
42
91
59
113
37
22
101
31
90
98
8
92
93
62
28
80
9
50
63
94
21
17
64

> <PUBCHEM_MMFF94_PARTIAL_CHARGES>
31
1 -0.18
12 0.41
13 -0.14
14 -0.15
15 0.08
17 -0.15
18 0.31
19 0.41
2 -0.19
20 0.47
21 0.28
22 0.1
23 0.19
24 -0.15
25 0.18
26 -0.15
27 -0.15
3 -0.36
38 0.15
39 0.15
4 -0.81
40 0.4
41 0.15
45 0.15
46 0.15
47 0.15
5 -0.62
6 -0.6
7 -0.62
8 0.27
9 0.27

> <PUBCHEM_EFFECTIVE_ROTOR_COUNT>
6

> <PUBCHEM_PHARMACOPHORE_FEATURES>
9
1 3 acceptor
1 4 cation
1 6 donor
3 5 7 20 cation
3 6 7 19 cation
5 4 8 9 10 11 rings
6 13 14 15 16 17 18 rings
6 22 23 24 25 26 27 rings
6 5 7 16 18 19 20 rings

> <PUBCHEM_HEAVY_ATOM_COUNT>
27

> <PUBCHEM_ATOM_DEF_STEREO_COUNT>
0

> <PUBCHEM_ATOM_UDEF_STEREO_COUNT>
0

> <PUBCHEM_BOND_DEF_STEREO_COUNT>
0

> <PUBCHEM_BOND_UDEF_STEREO_COUNT>
0

> <PUBCHEM_ISOTOPIC_ATOM_COUNT>
0

> <PUBCHEM_COMPONENT_COUNT>
1

> <PUBCHEM_CACTVS_TAUTO_COUNT>
3

> <PUBCHEM_CONFORMER_ID>
02A5A7DC00000001

> <PUBCHEM_MMFF94_ENERGY>
92.6296

> <PUBCHEM_FEATURE_SELFOVERLAP>
45.844

> <PUBCHEM_SHAPE_FINGERPRINT>
1100329 8 18410008815264927681
11135609 12 18264201581625103185
11578080 2 9006515960410676271
12363563 72 18410014376973015818
13140716 1 18412821413037225465
13402501 40 17844805889471658244
13911852 28 18049723220561779343
140371 6 18199755751740962452
14251757 5 18335704884057411333
14347424 109 18197790006208972747
14725015 67 18263636420011846899
14866123 147 18407760331582616091
15042514 8 18410576176260323677
15361156 5 18202560653585532748
15927050 60 18266172821954925007
17138139 8 17749102322989916626
17492 89 18339922748416953039
17627616 140 17972027047101636443
17909252 39 18194127545281529912
19315092 285 15694315347848017903
193927 3 18336826493329127646
19611394 137 18337944719189222658
20286276 3 18336550537807677805
20403669 9 18337109080834548515
20775530 9 18115019835273012319
21033648 29 17488442178965536706
21279426 13 18189882280085706847
21703447 108 18193264424179397377
22122407 14 15554436397057401784
221490 88 18338516468502478100
22440779 20 16980179666615430798
23557571 272 18058448691235902644
23559900 14 18342170043126956036
3178227 256 18264500495002914041
329604 57 18262241135486949342
335352 9 18341609262232493357
3383291 50 18411696583178561331
3421961 26 18123189266796540579
345986 75 17629500832570028977
4015057 19 17559646535001388153
404807 14 15118472130020778749
4073 2 18412542077407545130
44062 13 18408323272254765647
463206 1 18115580444506181362
5104073 3 18342451581947863168
5309563 4 18340209686302816855
5486654 36 18334295392234899201
59755656 215 18197496212780825254
613672 6 18339903996611123502
9709674 26 18266733761335695901

> <PUBCHEM_SHAPE_MULTIPOLES>
524.45
13.36
4.8
1.32
10.66
0.05
0.1
-11.91
-0.21
-6.39
1.25
1.34
-0.82
2.25

> <PUBCHEM_SHAPE_SELFOVERLAP>
1137.323

> <PUBCHEM_SHAPE_VOLUME>
288.6

> <PUBCHEM_COORDINATE_TYPE>
2
5
10

$$$$
