5327723
  -OEChem-10052120443D

 36 41  0     0  0  0  0  0  0999 V2000
    2.3075   -3.2255   -0.0018 O   0  0  0  0  0  0  0  0  0  0  0  0
   -2.3076   -3.2254    0.0003 O   0  0  0  0  0  0  0  0  0  0  0  0
    1.3919    2.2007    0.0008 N   0  0  0  0  0  0  0  0  0  0  0  0
   -1.3918    2.2007    0.0001 N   0  0  0  0  0  0  0  0  0  0  0  0
   -0.0001   -3.6157   -0.0003 N   0  0  0  0  0  0  0  0  0  0  0  0
    1.3408   -0.2452    0.0006 C   0  0  0  0  0  0  0  0  0  0  0  0
   -1.3409   -0.2451    0.0008 C   0  0  0  0  0  0  0  0  0  0  0  0
    0.6999    1.0390    0.0008 C   0  0  0  0  0  0  0  0  0  0  0  0
   -0.6999    1.0390    0.0007 C   0  0  0  0  0  0  0  0  0  0  0  0
    0.6944   -1.4780    0.0006 C   0  0  0  0  0  0  0  0  0  0  0  0
   -0.6946   -1.4780    0.0010 C   0  0  0  0  0  0  0  0  0  0  0  0
    2.7088    0.2925    0.0002 C   0  0  0  0  0  0  0  0  0  0  0  0
   -2.7088    0.2925    0.0004 C   0  0  0  0  0  0  0  0  0  0  0  0
    2.6957    1.7281    0.0004 C   0  0  0  0  0  0  0  0  0  0  0  0
   -2.6957    1.7281   -0.0002 C   0  0  0  0  0  0  0  0  0  0  0  0
    1.1497   -2.8574   -0.0003 C   0  0  0  0  0  0  0  0  0  0  0  0
   -1.1498   -2.8572    0.0003 C   0  0  0  0  0  0  0  0  0  0  0  0
    3.9745   -0.3418   -0.0002 C   0  0  0  0  0  0  0  0  0  0  0  0
   -3.9746   -0.3418    0.0004 C   0  0  0  0  0  0  0  0  0  0  0  0
    3.8821    2.4775    0.0000 C   0  0  0  0  0  0  0  0  0  0  0  0
   -3.8820    2.4775   -0.0012 C   0  0  0  0  0  0  0  0  0  0  0  0
    5.1513    0.4149   -0.0007 C   0  0  0  0  0  0  0  0  0  0  0  0
   -5.1512    0.4150   -0.0005 C   0  0  0  0  0  0  0  0  0  0  0  0
    5.1036    1.8028   -0.0008 C   0  0  0  0  0  0  0  0  0  0  0  0
   -5.1034    1.8029   -0.0014 C   0  0  0  0  0  0  0  0  0  0  0  0
    1.0505    3.1530    0.0009 H   0  0  0  0  0  0  0  0  0  0  0  0
   -1.0504    3.1531   -0.0003 H   0  0  0  0  0  0  0  0  0  0  0  0
   -0.0002   -4.6297   -0.0011 H   0  0  0  0  0  0  0  0  0  0  0  0
    4.0520   -1.4244   -0.0001 H   0  0  0  0  0  0  0  0  0  0  0  0
   -4.0520   -1.4243    0.0009 H   0  0  0  0  0  0  0  0  0  0  0  0
    3.8553    3.5631    0.0001 H   0  0  0  0  0  0  0  0  0  0  0  0
   -3.8552    3.5631   -0.0018 H   0  0  0  0  0  0  0  0  0  0  0  0
    6.1130   -0.0915   -0.0010 H   0  0  0  0  0  0  0  0  0  0  0  0
   -6.1129   -0.0913   -0.0006 H   0  0  0  0  0  0  0  0  0  0  0  0
    6.0291    2.3727   -0.0013 H   0  0  0  0  0  0  0  0  0  0  0  0
   -6.0289    2.3728   -0.0021 H   0  0  0  0  0  0  0  0  0  0  0  0
  1 16  2  0  0  0  0
  2 17  2  0  0  0  0
  3  8  1  0  0  0  0
  3 14  1  0  0  0  0
  3 26  1  0  0  0  0
  4  9  1  0  0  0  0
  4 15  1  0  0  0  0
  4 27  1  0  0  0  0
  5 16  1  0  0  0  0
  5 17  1  0  0  0  0
  5 28  1  0  0  0  0
  6  8  1  0  0  0  0
  6 10  2  0  0  0  0
  6 12  1  0  0  0  0
  7  9  1  0  0  0  0
  7 11  2  0  0  0  0
  7 13  1  0  0  0  0
  8  9  2  0  0  0  0
 10 11  1  0  0  0  0
 10 16  1  0  0  0  0
 11 17  1  0  0  0  0
 12 14  1  0  0  0  0
 12 18  2  0  0  0  0
 13 15  1  0  0  0  0
 13 19  2  0  0  0  0
 14 20  2  0  0  0  0
 15 21  2  0  0  0  0
 18 22  1  0  0  0  0
 18 29  1  0  0  0  0
 19 23  1  0  0  0  0
 19 30  1  0  0  0  0
 20 24  1  0  0  0  0
 20 31  1  0  0  0  0
 21 25  1  0  0  0  0
 21 32  1  0  0  0  0
 22 24  2  0  0  0  0
 22 33  1  0  0  0  0
 23 25  2  0  0  0  0
 23 34  1  0  0  0  0
 24 35  1  0  0  0  0
 25 36  1  0  0  0  0
M  END
> <PUBCHEM_COMPOUND_CID>
5327723

> <PUBCHEM_CONFORMER_RMSD>
0.6

> <PUBCHEM_CONFORMER_DIVERSEORDER>
1

> <PUBCHEM_MMFF94_PARTIAL_CHARGES>
34
1 -0.57
10 0.09
11 0.09
14 -0.15
15 -0.15
16 0.54
17 0.54
18 -0.15
19 -0.15
2 -0.57
20 -0.15
21 -0.15
22 -0.15
23 -0.15
24 -0.15
25 -0.15
26 0.27
27 0.27
28 0.37
29 0.15
3 -0.05
30 0.15
31 0.15
32 0.15
33 0.15
34 0.15
35 0.15
36 0.15
4 -0.05
5 -0.49
6 -0.01
7 -0.01
8 -0.05
9 -0.05

> <PUBCHEM_EFFECTIVE_ROTOR_COUNT>
0.2

> <PUBCHEM_PHARMACOPHORE_FEATURES>
13
1 1 acceptor
1 2 acceptor
1 3 cation
1 3 donor
1 4 cation
1 4 donor
1 5 donor
5 3 6 8 12 14 rings
5 4 7 9 13 15 rings
5 5 10 11 16 17 rings
6 12 14 18 20 22 24 rings
6 13 15 19 21 23 25 rings
6 6 7 8 9 10 11 rings

> <PUBCHEM_HEAVY_ATOM_COUNT>
25

> <PUBCHEM_ATOM_DEF_STEREO_COUNT>
0

> <PUBCHEM_ATOM_UDEF_STEREO_COUNT>
0

> <PUBCHEM_BOND_DEF_STEREO_COUNT>
0

> <PUBCHEM_BOND_UDEF_STEREO_COUNT>
0

> <PUBCHEM_ISOTOPIC_ATOM_COUNT>
0

> <PUBCHEM_COMPONENT_COUNT>
1

> <PUBCHEM_CACTVS_TAUTO_COUNT>
27

> <PUBCHEM_CONFORMER_ID>
00514B6B00000001

> <PUBCHEM_MMFF94_ENERGY>
95.6684

> <PUBCHEM_FEATURE_SELFOVERLAP>
66.444

> <PUBCHEM_SHAPE_FINGERPRINT>
10165383 225 18410578383209206845
10319926 262 18054769944868861608
10411042 1 17401769017336169382
10493431 412 18410574010974307756
10616163 171 18337673125824899019
10693767 8 17915173512199277942
10967382 1 18410575058898647331
1100329 8 18339359772678261024
11370993 70 18410854364911728697
12107183 9 18335409155128685528
12173636 292 18338794649444826004
12592029 89 18409731720837815370
12788726 201 17829883592421643706
13140716 1 18267021845829088936
138480 1 17762055436947104514
14787075 74 18202560717941430869
14790565 3 18410580586517075041
15042514 8 18120097436089383123
15131766 46 16010730575149114356
15196674 1 18410575084663429701
15664445 248 17481438075343495583
15927050 60 18412263943145835663
16087824 20 18339922736719689071
16728300 4 17172900870926220818
16752209 62 18195802101553994274
18681886 176 18408881867307164424
19591789 44 18410575088958065697
20510252 161 18126570256588559426
20739085 24 17903944169885265529
20775438 99 15610702036694639263
21033648 29 18339910584833240105
21236236 1 18268992162150241583
21796203 349 17258535169734717731
22182313 1 18267328532375291727
23227448 37 18340769337694052358
2334 1 17978511167216422402
23366157 5 17970633986763266522
23402539 116 18343014527674797597
23558518 356 17972599059298206850
23559900 14 18050280367464984667
283562 15 18121774199516400915
3091708 16 9265027576107793651
335352 9 18410575068343111662
338550 245 18334862748708695692
350125 39 18409450297152772465
352729 6 18338806730908014050
3680242 22 18336544898541505258
4340502 62 18411987948958039205
474 4 18338797814851462737
474229 33 18409730685930161585
5104073 3 18408886213497258713
5265222 85 18193009321109103116
59755656 215 18410577240937238916
6138700 20 18267027150937047942
7364860 26 18195245516309218599
8272917 22 18268713801346554469
9709674 26 18271531987266631838
9981440 41 18408322207066116051

> <PUBCHEM_SHAPE_MULTIPOLES>
487.81
9.66
3.99
0.6
0
3.42
0
-7.08
0
0
0
0
-0.02
0

> <PUBCHEM_SHAPE_SELFOVERLAP>
1155.649

> <PUBCHEM_SHAPE_VOLUME>
244.1

> <PUBCHEM_COORDINATE_TYPE>
2
5
10

$$$$
