24905310
  -OEChem-10052115143D

 38 41  0     1  0  0  0  0  0999 V2000
   -5.4968    1.4225    0.4554 F   0  0  0  0  0  0  0  0  0  0  0  0
   -4.3171    1.1452   -2.0148 O   0  0  0  0  0  0  0  0  0  0  0  0
    1.9442    0.1147    0.0137 N   0  0  0  0  0  0  0  0  0  0  0  0
    4.2838    2.8403   -0.7213 N   0  0  0  0  0  0  0  0  0  0  0  0
    0.8085    0.8319    0.1006 N   0  0  0  0  0  0  0  0  0  0  0  0
    2.6720   -2.1909   -0.1151 N   0  0  0  0  0  0  0  0  0  0  0  0
    0.7846   -3.7360   -0.0792 N   0  0  0  0  0  0  0  0  0  0  0  0
   -1.4816   -3.0007    0.0653 N   0  0  0  0  0  0  0  0  0  0  0  0
    3.2752    0.8289   -0.0265 C   0  0  2  0  0  0  0  0  0  0  0  0
    3.5760    1.7019    1.2023 C   0  0  0  0  0  0  0  0  0  0  0  0
    3.4071    1.7814   -1.2190 C   0  0  0  0  0  0  0  0  0  0  0  0
    3.8283    3.0933    0.6429 C   0  0  0  0  0  0  0  0  0  0  0  0
    1.7365   -1.2320   -0.0289 C   0  0  0  0  0  0  0  0  0  0  0  0
    0.3655   -1.4092    0.0347 C   0  0  0  0  0  0  0  0  0  0  0  0
   -0.1493   -0.1017    0.1129 C   0  0  0  0  0  0  0  0  0  0  0  0
   -1.5327    0.2925    0.2000 C   0  0  0  0  0  0  0  0  0  0  0  0
   -0.1049   -2.7178    0.0069 C   0  0  0  0  0  0  0  0  0  0  0  0
    2.0990   -3.4139   -0.1341 C   0  0  0  0  0  0  0  0  0  0  0  0
   -2.2644    0.5306   -0.9635 C   0  0  0  0  0  0  0  0  0  0  0  0
   -2.1402    0.4357    1.4474 C   0  0  0  0  0  0  0  0  0  0  0  0
   -3.6035    0.9118   -0.8796 C   0  0  0  0  0  0  0  0  0  0  0  0
   -3.4793    0.8169    1.5315 C   0  0  0  0  0  0  0  0  0  0  0  0
   -4.2110    1.0548    0.3680 C   0  0  0  0  0  0  0  0  0  0  0  0
    4.0311    0.0362   -0.0933 H   0  0  0  0  0  0  0  0  0  0  0  0
    4.4813    1.3277    1.6965 H   0  0  0  0  0  0  0  0  0  0  0  0
    2.7708    1.7057    1.9439 H   0  0  0  0  0  0  0  0  0  0  0  0
    3.8469    1.2796   -2.0866 H   0  0  0  0  0  0  0  0  0  0  0  0
    2.4434    2.2037   -1.5267 H   0  0  0  0  0  0  0  0  0  0  0  0
    2.9005    3.6775    0.6328 H   0  0  0  0  0  0  0  0  0  0  0  0
    4.5754    3.6402    1.2248 H   0  0  0  0  0  0  0  0  0  0  0  0
    4.1967    3.6787   -1.2928 H   0  0  0  0  0  0  0  0  0  0  0  0
   -1.7934    0.4194   -1.9381 H   0  0  0  0  0  0  0  0  0  0  0  0
    2.7836   -4.2526   -0.2024 H   0  0  0  0  0  0  0  0  0  0  0  0
   -1.5838    0.2533    2.3639 H   0  0  0  0  0  0  0  0  0  0  0  0
   -2.1677   -2.2634    0.1301 H   0  0  0  0  0  0  0  0  0  0  0  0
   -1.7807   -3.9664    0.0425 H   0  0  0  0  0  0  0  0  0  0  0  0
   -3.9525    0.9286    2.5025 H   0  0  0  0  0  0  0  0  0  0  0  0
   -3.7415    0.9994   -2.7852 H   0  0  0  0  0  0  0  0  0  0  0  0
  1 23  1  0  0  0  0
  2 21  1  0  0  0  0
  2 38  1  0  0  0  0
  3  5  1  0  0  0  0
  3  9  1  0  0  0  0
  3 13  1  0  0  0  0
  4 11  1  0  0  0  0
  4 12  1  0  0  0  0
  4 31  1  0  0  0  0
  5 15  2  0  0  0  0
  6 13  2  0  0  0  0
  6 18  1  0  0  0  0
  7 17  1  0  0  0  0
  7 18  2  0  0  0  0
  8 17  1  0  0  0  0
  8 35  1  0  0  0  0
  8 36  1  0  0  0  0
  9 10  1  0  0  0  0
  9 11  1  0  0  0  0
  9 24  1  0  0  0  0
 10 12  1  0  0  0  0
 10 25  1  0  0  0  0
 10 26  1  0  0  0  0
 11 27  1  0  0  0  0
 11 28  1  0  0  0  0
 12 29  1  0  0  0  0
 12 30  1  0  0  0  0
 13 14  1  0  0  0  0
 14 15  1  0  0  0  0
 14 17  2  0  0  0  0
 15 16  1  0  0  0  0
 16 19  2  0  0  0  0
 16 20  1  0  0  0  0
 18 33  1  0  0  0  0
 19 21  1  0  0  0  0
 19 32  1  0  0  0  0
 20 22  2  0  0  0  0
 20 34  1  0  0  0  0
 21 23  2  0  0  0  0
 22 23  1  0  0  0  0
 22 37  1  0  0  0  0
M  END
> <PUBCHEM_COMPOUND_CID>
24905310

> <PUBCHEM_CONFORMER_RMSD>
0.6

> <PUBCHEM_CONFORMER_DIVERSEORDER>
1
4
6
7
3
8
5
10
11
9
12
2

> <PUBCHEM_MMFF94_PARTIAL_CHARGES>
29
1 -0.19
11 0.27
12 0.27
13 0.11
15 0.23
16 0.05
17 0.41
18 0.47
19 -0.15
2 -0.53
20 -0.15
21 0.08
22 -0.15
23 0.19
3 0.31
31 0.36
32 0.15
33 0.15
34 0.15
35 0.4
36 0.4
37 0.15
38 0.45
4 -0.9
5 -0.71
6 -0.57
7 -0.62
8 -0.9
9 0.26

> <PUBCHEM_EFFECTIVE_ROTOR_COUNT>
3

> <PUBCHEM_PHARMACOPHORE_FEATURES>
12
1 2 donor
1 4 cation
1 4 donor
1 5 acceptor
1 8 cation
1 8 donor
3 3 6 13 cation
3 6 7 18 cation
5 3 5 13 14 15 rings
5 4 9 10 11 12 rings
6 16 19 20 21 22 23 rings
6 6 7 13 14 17 18 rings

> <PUBCHEM_HEAVY_ATOM_COUNT>
23

> <PUBCHEM_ATOM_DEF_STEREO_COUNT>
1

> <PUBCHEM_ATOM_UDEF_STEREO_COUNT>
0

> <PUBCHEM_BOND_DEF_STEREO_COUNT>
0

> <PUBCHEM_BOND_UDEF_STEREO_COUNT>
0

> <PUBCHEM_ISOTOPIC_ATOM_COUNT>
0

> <PUBCHEM_COMPONENT_COUNT>
1

> <PUBCHEM_CACTVS_TAUTO_COUNT>
15

> <PUBCHEM_CONFORMER_ID>
017C065E00000001

> <PUBCHEM_MMFF94_ENERGY>
52.3139

> <PUBCHEM_FEATURE_SELFOVERLAP>
61.177

> <PUBCHEM_SHAPE_FINGERPRINT>
10165383 225 18337126638871714932
10411042 1 17618507579776253618
1100329 8 18411703154241225338
11582403 64 17243539153981162261
11725454 13 17315042581231708397
12173636 292 18195527232173421756
12236239 1 17487609737489798323
12390115 104 18124330538623846752
12730499 353 18410023130316598089
12788726 201 17764575917515300290
13134695 92 17903357009264545558
13140716 1 18409729573618418082
13583140 156 16444167842221045628
13911987 19 18336548334299765709
13955234 65 18337958870268075835
13965767 371 18188475978495883112
14787075 74 17987801963815696971
15342168 16 18409454704132603341
15842332 3 17702945812692653969
16752209 62 17979624955864175050
17134986 127 18408890663573460932
1741750 31 18268710683210762664
17980427 23 18056730227565790906
1813 80 17554903069987476590
18785283 64 18334860476650208594
19784866 34 18342455979946933424
204376 136 18410013277276687345
20510252 161 17838903977273280506
20645477 70 18263082115679275435
21756936 100 17416432984913911624
2255824 54 18270683039282743374
22907989 373 17618502520520329812
23559900 14 18337671889027246955
2748010 2 18337688497877062590
283562 15 17907292504972536194
3091708 16 9116692471347973946
350125 39 18338527446903266298
4340502 62 18412549825364724467
458136 41 18410868645836055146
469060 322 17973733764088836859
474 4 18341894078028452672
495365 180 18409445847598477889
6034566 193 18117285971524242197
621550 34 18187932738162804677
633830 44 18059590073840405701
6443956 14 17834398921388180814
7364860 26 18340207363136238714
7399639 24 18186801357946251245
7471813 234 17842545258714809560
7615 1 17702096976625569249
77492 1 17559668443887235187
7808743 9 17975701902845986548
81228 2 17617385416943885810
8272917 22 18268717117018972517
84936 182 18201154369270283736
9981440 41 18268419316861313338

> <PUBCHEM_SHAPE_MULTIPOLES>
430.3
8.71
4.03
1.21
4.6
3.72
-0.1
-9.12
-0.49
-4.15
-0.07
0.86
-0.74
0.17

> <PUBCHEM_SHAPE_SELFOVERLAP>
955.76

> <PUBCHEM_SHAPE_VOLUME>
231.9

> <PUBCHEM_COORDINATE_TYPE>
2
5
10

$$$$
