9841863
  -OEChem-10052115143D

 42 45  0     0  0  0  0  0  0999 V2000
   -7.2695   -0.7501    0.1874 S   0  0  0  0  0  0  0  0  0  0  0  0
    5.6366   -3.3056   -0.0017 F   0  0  0  0  0  0  0  0  0  0  0  0
   -0.6729    1.0469    0.0247 N   0  0  0  0  0  0  0  0  0  0  0  0
   -0.4105   -1.1580    0.0661 N   0  0  0  0  0  0  0  0  0  0  0  0
    3.4946    3.9920   -0.1177 N   0  0  0  0  0  0  0  0  0  0  0  0
    0.6760    0.8301    0.0038 C   0  0  0  0  0  0  0  0  0  0  0  0
    0.8097   -0.5358    0.0305 C   0  0  0  0  0  0  0  0  0  0  0  0
   -1.2840   -0.1756    0.0622 C   0  0  0  0  0  0  0  0  0  0  0  0
    2.0550   -1.2508    0.0223 C   0  0  0  0  0  0  0  0  0  0  0  0
    1.6365    1.9044   -0.0371 C   0  0  0  0  0  0  0  0  0  0  0  0
   -2.7198   -0.3133    0.0923 C   0  0  0  0  0  0  0  0  0  0  0  0
   -3.3248   -1.4336   -0.4769 C   0  0  0  0  0  0  0  0  0  0  0  0
   -3.5027    0.6739    0.6907 C   0  0  0  0  0  0  0  0  0  0  0  0
    2.6827   -1.5722    1.2256 C   0  0  0  0  0  0  0  0  0  0  0  0
    2.6372   -1.6235   -1.1894 C   0  0  0  0  0  0  0  0  0  0  0  0
    2.0792    2.3989   -1.2593 C   0  0  0  0  0  0  0  0  0  0  0  0
    2.1224    2.4533    1.1449 C   0  0  0  0  0  0  0  0  0  0  0  0
   -4.7130   -1.5667   -0.4479 C   0  0  0  0  0  0  0  0  0  0  0  0
   -4.8909    0.5408    0.7198 C   0  0  0  0  0  0  0  0  0  0  0  0
   -5.4961   -0.5797    0.1506 C   0  0  0  0  0  0  0  0  0  0  0  0
    3.8926   -2.2662    1.2175 C   0  0  0  0  0  0  0  0  0  0  0  0
    3.8470   -2.3176   -1.1976 C   0  0  0  0  0  0  0  0  0  0  0  0
    4.4748   -2.6391    0.0060 C   0  0  0  0  0  0  0  0  0  0  0  0
    3.0002    3.4339   -1.2455 C   0  0  0  0  0  0  0  0  0  0  0  0
    3.0415    3.4859    1.0511 C   0  0  0  0  0  0  0  0  0  0  0  0
   -7.8016    0.7277   -0.7222 C   0  0  0  0  0  0  0  0  0  0  0  0
   -1.1274    1.9507    0.0018 H   0  0  0  0  0  0  0  0  0  0  0  0
   -2.7334   -2.2132   -0.9510 H   0  0  0  0  0  0  0  0  0  0  0  0
   -3.0621    1.5520    1.1563 H   0  0  0  0  0  0  0  0  0  0  0  0
    2.2422   -1.2887    2.1786 H   0  0  0  0  0  0  0  0  0  0  0  0
    2.1607   -1.3803   -2.1362 H   0  0  0  0  0  0  0  0  0  0  0  0
    1.7236    1.9970   -2.2027 H   0  0  0  0  0  0  0  0  0  0  0  0
    1.8013    2.0947    2.1176 H   0  0  0  0  0  0  0  0  0  0  0  0
   -5.1669   -2.4464   -0.8976 H   0  0  0  0  0  0  0  0  0  0  0  0
   -5.4804    1.3176    1.2003 H   0  0  0  0  0  0  0  0  0  0  0  0
    4.3818   -2.5165    2.1542 H   0  0  0  0  0  0  0  0  0  0  0  0
    4.3007   -2.6079   -2.1407 H   0  0  0  0  0  0  0  0  0  0  0  0
    3.3767    3.8546   -2.1721 H   0  0  0  0  0  0  0  0  0  0  0  0
    3.4508    3.9478    1.9435 H   0  0  0  0  0  0  0  0  0  0  0  0
   -7.3313    0.7569   -1.7089 H   0  0  0  0  0  0  0  0  0  0  0  0
   -7.5459    1.6357   -0.1701 H   0  0  0  0  0  0  0  0  0  0  0  0
   -8.8865    0.6959   -0.8530 H   0  0  0  0  0  0  0  0  0  0  0  0
  1 20  1  0  0  0  0
  1 26  1  0  0  0  0
  2 23  1  0  0  0  0
  3  6  1  0  0  0  0
  3  8  1  0  0  0  0
  3 27  1  0  0  0  0
  4  7  1  0  0  0  0
  4  8  2  0  0  0  0
  5 24  2  0  0  0  0
  5 25  1  0  0  0  0
  6  7  2  0  0  0  0
  6 10  1  0  0  0  0
  7  9  1  0  0  0  0
  8 11  1  0  0  0  0
  9 14  2  0  0  0  0
  9 15  1  0  0  0  0
 10 16  2  0  0  0  0
 10 17  1  0  0  0  0
 11 12  2  0  0  0  0
 11 13  1  0  0  0  0
 12 18  1  0  0  0  0
 12 28  1  0  0  0  0
 13 19  2  0  0  0  0
 13 29  1  0  0  0  0
 14 21  1  0  0  0  0
 14 30  1  0  0  0  0
 15 22  2  0  0  0  0
 15 31  1  0  0  0  0
 16 24  1  0  0  0  0
 16 32  1  0  0  0  0
 17 25  2  0  0  0  0
 17 33  1  0  0  0  0
 18 20  2  0  0  0  0
 18 34  1  0  0  0  0
 19 20  1  0  0  0  0
 19 35  1  0  0  0  0
 21 23  2  0  0  0  0
 21 36  1  0  0  0  0
 22 23  1  0  0  0  0
 22 37  1  0  0  0  0
 24 38  1  0  0  0  0
 25 39  1  0  0  0  0
 26 40  1  0  0  0  0
 26 41  1  0  0  0  0
 26 42  1  0  0  0  0
M  END
> <PUBCHEM_COMPOUND_CID>
9841863

> <PUBCHEM_CONFORMER_RMSD>
0.8

> <PUBCHEM_CONFORMER_DIVERSEORDER>
1
3
5
7
2
4
6

> <PUBCHEM_MMFF94_PARTIAL_CHARGES>
39
1 -0.33
10 0.05
11 0.05
12 -0.15
13 -0.15
14 -0.15
15 -0.15
16 -0.15
17 -0.15
18 -0.15
19 -0.15
2 -0.19
20 0.1
21 -0.15
22 -0.15
23 0.19
24 0.16
25 0.16
26 0.23
27 0.27
28 0.15
29 0.15
3 0.03
30 0.15
31 0.15
32 0.15
33 0.15
34 0.15
35 0.15
36 0.15
37 0.15
38 0.15
39 0.15
4 -0.57
5 -0.62
6 -0.2
7 0.17
8 0.13
9 0.05

> <PUBCHEM_EFFECTIVE_ROTOR_COUNT>
4

> <PUBCHEM_PHARMACOPHORE_FEATURES>
8
1 26 hydrophobe
1 3 donor
1 5 acceptor
3 3 4 8 cation
5 3 4 6 7 8 rings
6 11 12 13 18 19 20 rings
6 5 10 16 17 24 25 rings
6 9 14 15 21 22 23 rings

> <PUBCHEM_HEAVY_ATOM_COUNT>
26

> <PUBCHEM_ATOM_DEF_STEREO_COUNT>
0

> <PUBCHEM_ATOM_UDEF_STEREO_COUNT>
0

> <PUBCHEM_BOND_DEF_STEREO_COUNT>
0

> <PUBCHEM_BOND_UDEF_STEREO_COUNT>
0

> <PUBCHEM_ISOTOPIC_ATOM_COUNT>
0

> <PUBCHEM_COMPONENT_COUNT>
1

> <PUBCHEM_CACTVS_TAUTO_COUNT>
3

> <PUBCHEM_CONFORMER_ID>
00962CC700000001

> <PUBCHEM_MMFF94_ENERGY>
70.345

> <PUBCHEM_FEATURE_SELFOVERLAP>
40.597

> <PUBCHEM_SHAPE_FINGERPRINT>
10050765 1 18338236093850018819
10411042 1 18266459802784128042
10554248 39 18340472440497454685
10721379 63 18339935891228115732
11045515 52 18117562825780234564
12107183 9 18126294043332272377
12166972 35 18272932683207216075
12516196 113 18339079281497201826
12616971 3 18201996638939014799
12730499 353 18195540400548380425
12741549 16 17774146887330982890
12788726 201 17755584837462660962
13009979 54 18059020479551284281
131258 43 17273721796636670860
13383668 362 18199172061353578571
133893 2 18264229013771081056
13533116 47 18411982494581552081
13540713 5 18201444705281068121
13590594 115 18264217906574417920
1361 4 18195243554676106055
13878862 14 18265312015840113637
13955234 65 18338519750010200688
14118638 360 18197497540558930199
14170010 4 18412261748691061432
14739800 52 17703503415048360849
14955137 171 18270965639720233630
15042514 8 17834395618864532114
15439362 3 18263926699681660764
15664445 248 18270413685278950286
1577012 14 17988368161481643211
15927050 60 18124316270779672686
17492 89 18340768264586172639
17844677 252 18408608037767164777
1813 80 18269280071315113246
18222031 100 18270123409365500006
18335252 98 9943512039309246725
20369508 70 18261110751186129442
20554085 129 17843395430918436784
20612939 158 18410298025535247325
20771845 65 18130507440371659058
21033648 29 17168132456705761815
21049683 271 18261401040110653316
21304303 172 18056765317020851008
2132832 1 18202004283474646689
21344244 78 18059846242832665137
21781055 127 16557650576787303971
21859007 373 17969481742366021685
22182313 1 17750213903232947741
23366157 5 18261394494163703892
23559900 14 18341324552928682571
249057 25 17775008964903495025
249999 5 18339079405950715016
25147074 1 18201173082748663049
3004659 81 18413952776469080827
312423 11 18342470239828660833
3411729 13 18337386166633868128
350125 39 18410012117894298549
4073 2 18043534022247902203
4409770 3 17395286919727908260
474 4 18044658834926703285
5104073 3 18340215171972346099
5219985 9 18264772065367918586
5385378 56 18339080518199817936
5895379 119 17273440295067736561
5912855 24 18055071223570742055
59755656 215 18337114570024162740
67856867 119 18342454889335950337
70251023 43 18335986376530405099
7364860 26 18342177804016380056
8863177 126 18041859414504863259
9841814 1 18260540109225674474
9962374 69 18342170086124322767
9981440 41 17906730658883148312

> <PUBCHEM_SHAPE_MULTIPOLES>
516.7
14.99
4.28
1.14
31.17
2.81
0.04
-4.86
0.75
-10.33
0.22
-0.94
0.19
-0.28

> <PUBCHEM_SHAPE_SELFOVERLAP>
1134.782

> <PUBCHEM_SHAPE_VOLUME>
284.7

> <PUBCHEM_COORDINATE_TYPE>
2
5
10

$$$$
