49830917
  -OEChem-10052120443D

 50 53  0     0  0  0  0  0  0999 V2000
   -2.8661   -2.6309    0.5477 O   0  0  0  0  0  0  0  0  0  0  0  0
   -4.9097   -1.2267   -0.2795 O   0  0  0  0  0  0  0  0  0  0  0  0
    1.7705    5.8389    0.1117 O   0  0  0  0  0  0  0  0  0  0  0  0
   -4.9002    0.8866    0.6657 O   0  0  0  0  0  0  0  0  0  0  0  0
   -0.7217    0.8415    0.1252 N   0  0  0  0  0  0  0  0  0  0  0  0
    6.2626   -1.8936   -0.2030 N   0  0  0  0  0  0  0  0  0  0  0  0
   -0.0199   -0.4113    0.1879 C   0  0  0  0  0  0  0  0  0  0  0  0
   -0.7370   -1.6193    0.3333 C   0  0  0  0  0  0  0  0  0  0  0  0
   -0.0808    2.1235    0.1071 C   0  0  0  0  0  0  0  0  0  0  0  0
    1.3794   -0.5009    0.0672 C   0  0  0  0  0  0  0  0  0  0  0  0
   -2.1144    0.8002    0.1292 C   0  0  0  0  0  0  0  0  0  0  0  0
   -2.2194   -1.6025    0.3928 C   0  0  0  0  0  0  0  0  0  0  0  0
   -2.8842   -0.2878    0.2476 C   0  0  0  0  0  0  0  0  0  0  0  0
    2.0363   -1.7334    0.1316 C   0  0  0  0  0  0  0  0  0  0  0  0
   -0.0771   -2.8543    0.3999 C   0  0  0  0  0  0  0  0  0  0  0  0
    0.2783    2.7251   -1.0992 C   0  0  0  0  0  0  0  0  0  0  0  0
    1.3102   -2.9065    0.3045 C   0  0  0  0  0  0  0  0  0  0  0  0
    0.1824    2.7702    1.3145 C   0  0  0  0  0  0  0  0  0  0  0  0
    3.4779   -1.7885    0.0174 C   0  0  0  0  0  0  0  0  0  0  0  0
    0.9007    3.9734   -1.0977 C   0  0  0  0  0  0  0  0  0  0  0  0
    0.0082    2.0551   -2.4071 C   0  0  0  0  0  0  0  0  0  0  0  0
    0.8051    4.0185    1.3160 C   0  0  0  0  0  0  0  0  0  0  0  0
   -4.3378   -0.1142    0.2480 C   0  0  0  0  0  0  0  0  0  0  0  0
    1.1641    4.6201    0.1098 C   0  0  0  0  0  0  0  0  0  0  0  0
    4.0930   -2.9081   -0.5320 C   0  0  0  0  0  0  0  0  0  0  0  0
    4.2537   -0.7214    0.4566 C   0  0  0  0  0  0  0  0  0  0  0  0
    5.4757   -2.9113   -0.6191 C   0  0  0  0  0  0  0  0  0  0  0  0
    5.6293   -0.8224    0.3254 C   0  0  0  0  0  0  0  0  0  0  0  0
   -6.3394   -1.2095   -0.3472 C   0  0  0  0  0  0  0  0  0  0  0  0
   -6.8199   -2.5105   -0.9541 C   0  0  0  0  0  0  0  0  0  0  0  0
    1.9427    0.4131   -0.1016 H   0  0  0  0  0  0  0  0  0  0  0  0
   -2.5605    1.7872    0.0322 H   0  0  0  0  0  0  0  0  0  0  0  0
   -0.6279   -3.7828    0.5238 H   0  0  0  0  0  0  0  0  0  0  0  0
    1.7818   -3.8815    0.3898 H   0  0  0  0  0  0  0  0  0  0  0  0
   -0.0919    2.3115    2.2612 H   0  0  0  0  0  0  0  0  0  0  0  0
    1.1825    4.4461   -2.0356 H   0  0  0  0  0  0  0  0  0  0  0  0
    0.5634    1.1151   -2.4832 H   0  0  0  0  0  0  0  0  0  0  0  0
   -1.0616    1.8566   -2.5277 H   0  0  0  0  0  0  0  0  0  0  0  0
    0.3143    2.6799   -3.2535 H   0  0  0  0  0  0  0  0  0  0  0  0
    1.0077    4.5172    2.2598 H   0  0  0  0  0  0  0  0  0  0  0  0
    3.5478   -3.7616   -0.9201 H   0  0  0  0  0  0  0  0  0  0  0  0
    3.8433    0.1677    0.9226 H   0  0  0  0  0  0  0  0  0  0  0  0
    6.0038   -3.7576   -1.0462 H   0  0  0  0  0  0  0  0  0  0  0  0
    6.2798   -0.0208    0.6596 H   0  0  0  0  0  0  0  0  0  0  0  0
   -6.6652   -0.3679   -0.9686 H   0  0  0  0  0  0  0  0  0  0  0  0
   -6.7511   -1.0971    0.6620 H   0  0  0  0  0  0  0  0  0  0  0  0
    1.9479    6.1046   -0.8070 H   0  0  0  0  0  0  0  0  0  0  0  0
   -7.9113   -2.5317   -1.0205 H   0  0  0  0  0  0  0  0  0  0  0  0
   -6.4852   -3.3625   -0.3533 H   0  0  0  0  0  0  0  0  0  0  0  0
   -6.4017   -2.6453   -1.9571 H   0  0  0  0  0  0  0  0  0  0  0  0
  1 12  2  0  0  0  0
  2 23  1  0  0  0  0
  2 29  1  0  0  0  0
  3 24  1  0  0  0  0
  3 47  1  0  0  0  0
  4 23  2  0  0  0  0
  5  7  1  0  0  0  0
  5  9  1  0  0  0  0
  5 11  1  0  0  0  0
  6 27  2  0  0  0  0
  6 28  1  0  0  0  0
  7  8  2  0  0  0  0
  7 10  1  0  0  0  0
  8 12  1  0  0  0  0
  8 15  1  0  0  0  0
  9 16  2  0  0  0  0
  9 18  1  0  0  0  0
 10 14  2  0  0  0  0
 10 31  1  0  0  0  0
 11 13  2  0  0  0  0
 11 32  1  0  0  0  0
 12 13  1  0  0  0  0
 13 23  1  0  0  0  0
 14 17  1  0  0  0  0
 14 19  1  0  0  0  0
 15 17  2  0  0  0  0
 15 33  1  0  0  0  0
 16 20  1  0  0  0  0
 16 21  1  0  0  0  0
 17 34  1  0  0  0  0
 18 22  2  0  0  0  0
 18 35  1  0  0  0  0
 19 25  2  0  0  0  0
 19 26  1  0  0  0  0
 20 24  2  0  0  0  0
 20 36  1  0  0  0  0
 21 37  1  0  0  0  0
 21 38  1  0  0  0  0
 21 39  1  0  0  0  0
 22 24  1  0  0  0  0
 22 40  1  0  0  0  0
 25 27  1  0  0  0  0
 25 41  1  0  0  0  0
 26 28  2  0  0  0  0
 26 42  1  0  0  0  0
 27 43  1  0  0  0  0
 28 44  1  0  0  0  0
 29 30  1  0  0  0  0
 29 45  1  0  0  0  0
 29 46  1  0  0  0  0
 30 48  1  0  0  0  0
 30 49  1  0  0  0  0
 30 50  1  0  0  0  0
M  END
> <PUBCHEM_COMPOUND_CID>
49830917

> <PUBCHEM_CONFORMER_RMSD>
0.8

> <PUBCHEM_CONFORMER_DIVERSEORDER>
1
11
8
6
10
4
9
7
12
5
3
2

> <PUBCHEM_MMFF94_PARTIAL_CHARGES>
39
1 -0.57
10 -0.15
11 -0.05
12 0.47
13 0.03
15 -0.15
16 -0.14
17 -0.15
18 -0.15
2 -0.43
20 -0.15
21 0.14
22 -0.15
23 0.71
24 0.08
25 -0.15
26 -0.15
27 0.16
28 0.16
29 0.28
3 -0.53
31 0.15
32 0.15
33 0.15
34 0.15
35 0.15
36 0.15
4 -0.57
40 0.15
41 0.15
42 0.15
43 0.15
44 0.15
47 0.45
5 -0.3
6 -0.62
7 0.1
8 0.09
9 0.1

> <PUBCHEM_EFFECTIVE_ROTOR_COUNT>
5

> <PUBCHEM_PHARMACOPHORE_FEATURES>
9
1 1 acceptor
1 3 donor
1 4 acceptor
1 5 cation
1 6 acceptor
6 5 7 8 11 12 13 rings
6 6 19 25 26 27 28 rings
6 7 8 10 14 15 17 rings
6 9 16 18 20 22 24 rings

> <PUBCHEM_HEAVY_ATOM_COUNT>
30

> <PUBCHEM_ATOM_DEF_STEREO_COUNT>
0

> <PUBCHEM_ATOM_UDEF_STEREO_COUNT>
0

> <PUBCHEM_BOND_DEF_STEREO_COUNT>
0

> <PUBCHEM_BOND_UDEF_STEREO_COUNT>
0

> <PUBCHEM_ISOTOPIC_ATOM_COUNT>
0

> <PUBCHEM_COMPONENT_COUNT>
1

> <PUBCHEM_CACTVS_TAUTO_COUNT>
6

> <PUBCHEM_CONFORMER_ID>
02F85C0500000001

> <PUBCHEM_MMFF94_ENERGY>
106.5936

> <PUBCHEM_FEATURE_SELFOVERLAP>
45.695

> <PUBCHEM_SHAPE_FINGERPRINT>
10006869 2 17832417605962056419
10032420 55 17531513309727692811
10050765 1 18121780793177585987
102385 1 17904206184376162379
10411042 1 18411419475286635818
10670039 82 18118987801888608638
10930396 42 18191276413416009394
1100329 8 18409736196120157443
11045515 52 18263364702794202193
11049842 53 17466520313868720316
11582403 64 16124144168055448033
12058002 1 17415033276700448875
12166972 35 18342458166644203195
12516196 113 18412261714068020563
12788726 201 18044093454164165954
131258 43 18126876900596196006
13140716 1 18336279959173118178
13540713 4 17897728910739088339
13540713 5 18130518539247698769
138480 1 18410858806483010264
14028597 1 17339880711911531152
14068700 675 18201436969886732281
14347332 77 18121497952042708898
14394314 77 18338521811610417841
14400156 266 18059028198087900285
14415361 192 17314206935732154888
14955137 171 18337409174710395419
15131766 46 15983098645573676674
15230672 131 17544196434649271684
15439362 3 18193552500763739909
15927050 60 17764592418636908670
15961568 22 18411422817794097924
16087824 20 17978514131789180169
167882 2 18193556903057349345
17980427 23 18059583460223376289
17980427 26 17983289619050122917
18336668 15 18186527578965281885
18681886 176 18341886407623713043
20238998 120 18411697660334306412
20600515 1 18270698470967914358
21049683 271 18260837024409250045
21304253 13 18340209592187595609
23559900 14 18338509854965122507
23845131 108 16895401590211381472
24204213 148 16549988329087474279
24771293 8 18343579659745600216
24771750 20 17975422617674031420
249057 3 18411697657210113463
25019877 29 17131830971464790750
283562 15 18118687621559060186
3178227 256 18263380161236186531
3380486 145 18120671140672789777
350125 39 17545045901067954210
4017518 198 17763186135329910556
4197921 191 18187651255398025534
469060 322 18265905644470441920
5171179 24 18337940256080703477
6004065 56 18339357573380932551
7399639 24 18057875862931689854
9962374 69 18341325713134887295
9981440 41 17472697408805352337

> <PUBCHEM_SHAPE_MULTIPOLES>
583.95
11.72
6.46
1.13
6.47
10.25
0.44
-15.44
1.72
-4.12
0.1
0.09
0.91
-0.04

> <PUBCHEM_SHAPE_SELFOVERLAP>
1291.287

> <PUBCHEM_SHAPE_VOLUME>
312

> <PUBCHEM_COORDINATE_TYPE>
2
5
10

$$$$
