24896769
  -OEChem-10052115173D

 37 40  0     0  0  0  0  0  0999 V2000
    3.1004   -1.1628    2.5140 Cl  0  0  0  0  0  0  0  0  0  0  0  0
    2.9952    0.8705   -2.5748 Cl  0  0  0  0  0  0  0  0  0  0  0  0
   -3.0651    1.3646   -2.2449 Cl  0  0  0  0  0  0  0  0  0  0  0  0
   -7.0006   -0.7836    0.0767 F   0  0  0  0  0  0  0  0  0  0  0  0
    2.4967   -2.5664   -0.9849 O   0  5  0  0  0  0  0  0  0  0  0  0
    1.5355   -1.7917   -0.6555 N   0  3  0  0  0  0  0  0  0  0  0  0
    1.0021    1.5590    0.6916 N   0  0  0  0  0  0  0  0  0  0  0  0
   -0.5885   -0.1325    0.0514 C   0  0  0  0  0  0  0  0  0  0  0  0
    0.7293    0.3323    0.2086 C   0  0  0  0  0  0  0  0  0  0  0  0
    1.7617   -0.5209   -0.1535 C   0  0  0  0  0  0  0  0  0  0  0  0
   -1.6370    0.7236    0.4151 C   0  0  0  0  0  0  0  0  0  0  0  0
    3.1504   -0.1164   -0.0206 C   0  0  0  0  0  0  0  0  0  0  0  0
   -0.8285   -1.4158   -0.4549 C   0  0  0  0  0  0  0  0  0  0  0  0
   -3.0344    0.3438    0.2949 C   0  0  0  0  0  0  0  0  0  0  0  0
   -1.3630    1.9893    0.9138 C   0  0  0  0  0  0  0  0  0  0  0  0
    0.2401   -2.2309   -0.8028 C   0  0  0  0  0  0  0  0  0  0  0  0
   -0.0372    2.3554    1.0313 C   0  0  0  0  0  0  0  0  0  0  0  0
    3.8403   -0.3701    1.1648 C   0  0  0  0  0  0  0  0  0  0  0  0
    3.7940    0.5261   -1.0782 C   0  0  0  0  0  0  0  0  0  0  0  0
   -3.7666    0.5903   -0.8665 C   0  0  0  0  0  0  0  0  0  0  0  0
   -3.6419   -0.2837    1.3824 C   0  0  0  0  0  0  0  0  0  0  0  0
    5.1739    0.0184    1.2925 C   0  0  0  0  0  0  0  0  0  0  0  0
    5.1276    0.9146   -0.9505 C   0  0  0  0  0  0  0  0  0  0  0  0
   -5.1063    0.2093   -0.9403 C   0  0  0  0  0  0  0  0  0  0  0  0
   -4.9817   -0.6648    1.3085 C   0  0  0  0  0  0  0  0  0  0  0  0
    5.8176    0.6607    0.2348 C   0  0  0  0  0  0  0  0  0  0  0  0
   -5.7139   -0.4182    0.1472 C   0  0  0  0  0  0  0  0  0  0  0  0
   -1.8299   -1.8128   -0.5923 H   0  0  0  0  0  0  0  0  0  0  0  0
   -2.1471    2.6804    1.2058 H   0  0  0  0  0  0  0  0  0  0  0  0
    0.1334   -3.2300   -1.1990 H   0  0  0  0  0  0  0  0  0  0  0  0
    0.2385    3.3323    1.4146 H   0  0  0  0  0  0  0  0  0  0  0  0
   -3.0877   -0.4852    2.2964 H   0  0  0  0  0  0  0  0  0  0  0  0
    5.7269   -0.1714    2.2091 H   0  0  0  0  0  0  0  0  0  0  0  0
    5.6448    1.4162   -1.7646 H   0  0  0  0  0  0  0  0  0  0  0  0
   -5.6919    0.3936   -1.8374 H   0  0  0  0  0  0  0  0  0  0  0  0
   -5.4551   -1.1535    2.1549 H   0  0  0  0  0  0  0  0  0  0  0  0
    6.8560    0.9633    0.3342 H   0  0  0  0  0  0  0  0  0  0  0  0
  1 18  1  0  0  0  0
  2 19  1  0  0  0  0
  3 20  1  0  0  0  0
  4 27  1  0  0  0  0
  5  6  1  0  0  0  0
  6 10  2  0  0  0  0
  6 16  1  0  0  0  0
  7  9  2  0  0  0  0
  7 17  1  0  0  0  0
  8  9  1  0  0  0  0
  8 11  2  0  0  0  0
  8 13  1  0  0  0  0
  9 10  1  0  0  0  0
 10 12  1  0  0  0  0
 11 14  1  0  0  0  0
 11 15  1  0  0  0  0
 12 18  2  0  0  0  0
 12 19  1  0  0  0  0
 13 16  2  0  0  0  0
 13 28  1  0  0  0  0
 14 20  2  0  0  0  0
 14 21  1  0  0  0  0
 15 17  2  0  0  0  0
 15 29  1  0  0  0  0
 16 30  1  0  0  0  0
 17 31  1  0  0  0  0
 18 22  1  0  0  0  0
 19 23  2  0  0  0  0
 20 24  1  0  0  0  0
 21 25  2  0  0  0  0
 21 32  1  0  0  0  0
 22 26  2  0  0  0  0
 22 33  1  0  0  0  0
 23 26  1  0  0  0  0
 23 34  1  0  0  0  0
 24 27  2  0  0  0  0
 24 35  1  0  0  0  0
 25 27  1  0  0  0  0
 25 36  1  0  0  0  0
 26 37  1  0  0  0  0
M  CHG  2   5  -1   6   1
M  END
> <PUBCHEM_COMPOUND_CID>
24896769

> <PUBCHEM_CONFORMER_RMSD>
0.6

> <PUBCHEM_CONFORMER_DIVERSEORDER>
2
1

> <PUBCHEM_MMFF94_PARTIAL_CHARGES>
33
1 -0.18
10 0.09
13 -0.15
15 -0.15
16 -0.06
17 0.16
18 0.18
19 0.18
2 -0.18
20 0.18
21 -0.15
22 -0.15
23 -0.15
24 -0.15
25 -0.15
26 -0.15
27 0.19
28 0.15
29 0.15
3 -0.18
30 0.15
31 0.15
32 0.15
33 0.15
34 0.15
35 0.15
36 0.15
37 0.15
4 -0.19
5 -0.75
6 0.57
7 -0.62
9 0.31

> <PUBCHEM_EFFECTIVE_ROTOR_COUNT>
2

> <PUBCHEM_PHARMACOPHORE_FEATURES>
6
1 5 anion
1 7 acceptor
6 12 18 19 22 23 26 rings
6 14 20 21 24 25 27 rings
6 6 8 9 10 13 16 rings
6 7 8 9 11 15 17 rings

> <PUBCHEM_HEAVY_ATOM_COUNT>
27

> <PUBCHEM_ATOM_DEF_STEREO_COUNT>
0

> <PUBCHEM_ATOM_UDEF_STEREO_COUNT>
0

> <PUBCHEM_BOND_DEF_STEREO_COUNT>
0

> <PUBCHEM_BOND_UDEF_STEREO_COUNT>
0

> <PUBCHEM_ISOTOPIC_ATOM_COUNT>
0

> <PUBCHEM_COMPONENT_COUNT>
1

> <PUBCHEM_CACTVS_TAUTO_COUNT>
1

> <PUBCHEM_CONFORMER_ID>
017BE50100000002

> <PUBCHEM_MMFF94_ENERGY>
90.5544

> <PUBCHEM_FEATURE_SELFOVERLAP>
30.48

> <PUBCHEM_SHAPE_FINGERPRINT>
10 15 18114455765045296600
10090160 65 18407760326353939350
10595046 47 17022902358684699077
10670039 82 18341065016993235492
10906281 52 18339380594816719513
1100329 8 18058165201222782161
11370993 70 16732704952062348274
11646440 116 17775010123669010659
11796584 16 17385723595491714331
11963148 33 18340199782340698199
12107183 9 16375481140169634561
12107698 1 16877659084511114636
12166972 35 18260832583824782548
12236239 1 18186519900159796824
12467345 10 17095238124853409714
12516196 113 17989489632433555353
12553582 1 18059849563111461297
12670546 56 16443339845408718141
12730499 353 16128661864218651206
12788726 201 18410855421568876745
13140716 1 18057317499258918866
13224815 77 17987795207199104873
13533116 47 16588019082896804698
13583140 156 17531250581834674128
13862211 1 18273213105610834147
13911987 19 18412261757080757189
14787075 74 18336549399382491963
14790565 3 18130518503796755920
14840074 17 17561360686508244013
14863182 85 18272377451326103246
15537594 2 17704068491305453231
15788980 27 16153712015879704409
15849732 13 18040999553677708806
1601671 61 18272088318253651310
17349148 13 18410292476084020976
1813 80 17775295962491470029
19489759 90 16443062790201320397
20028762 73 17559671918616719847
20715895 44 17608075486656081893
21033650 10 16734683944048588132
21641784 216 18337408057634523692
22149856 69 18199769011106469163
22956985 138 18049722915118344290
23536379 177 16732979821405880217
23557571 272 17821728312994431029
23559900 14 18046628910534424266
23569914 152 16334703449720655709
23569943 247 16986617276699324478
24771293 8 17560228241082065072
34797466 226 17603878805338227559
404807 14 16159869074694643066
4073 2 15068631516878524720
4325135 7 18113619001866964871
4340502 62 17458346355390639434
5104073 3 18057328288433356475
6669772 16 17972316484837093112
7495541 125 18113621235060327401
77296 10 16877939421352730425

> <PUBCHEM_SHAPE_MULTIPOLES>
538.15
13.02
1.99
1.84
7.28
0.43
0.16
-0.75
-0.24
-0.78
0.19
-0.61
-0.12
-0.28

> <PUBCHEM_SHAPE_SELFOVERLAP>
1186.821

> <PUBCHEM_SHAPE_VOLUME>
294

> <PUBCHEM_COORDINATE_TYPE>
2
5
10

$$$$
