44352844
  -OEChem-10052115143D

 77 85  0     1  0  0  0  0  0999 V2000
    0.6073   -0.0269    2.5084 O   0  0  0  0  0  0  0  0  0  0  0  0
   -0.7442    0.6334   -0.4683 O   0  0  0  0  0  0  0  0  0  0  0  0
    6.2877   -2.0682   -1.6941 O   0  0  0  0  0  0  0  0  0  0  0  0
   -4.0089    1.6000    1.2357 O   0  0  0  0  0  0  0  0  0  0  0  0
   -8.8703   -0.5657   -2.0719 O   0  0  0  0  0  0  0  0  0  0  0  0
    1.3520    1.5020    0.9217 N   0  0  0  0  0  0  0  0  0  0  0  0
    1.5218   -1.4935    0.9516 N   0  0  0  0  0  0  0  0  0  0  0  0
   -3.0996   -0.4960    0.7372 N   0  0  0  0  0  0  0  0  0  0  0  0
    6.5290    0.2464   -1.9375 N   0  0  0  0  0  0  0  0  0  0  0  0
    0.2135    1.1143    1.7412 C   0  0  1  0  0  0  0  0  0  0  0  0
   -1.0774    0.8948    0.9022 C   0  0  2  0  0  0  0  0  0  0  0  0
    0.4436   -1.2791    1.8893 C   0  0  2  0  0  0  0  0  0  0  0  0
   -1.8556   -0.3022    1.4414 C   0  0  2  0  0  0  0  0  0  0  0  0
   -0.9691   -1.5407    1.3474 C   0  0  0  0  0  0  0  0  0  0  0  0
    2.3862    0.7593    0.4012 C   0  0  0  0  0  0  0  0  0  0  0  0
    2.4625   -0.6646    0.4060 C   0  0  0  0  0  0  0  0  0  0  0  0
    3.4772    1.4166   -0.2818 C   0  0  0  0  0  0  0  0  0  0  0  0
    3.6238   -1.2228   -0.2675 C   0  0  0  0  0  0  0  0  0  0  0  0
    1.6555    2.7783    0.4257 C   0  0  0  0  0  0  0  0  0  0  0  0
   -0.0776    2.1101    2.8885 C   0  0  0  0  0  0  0  0  0  0  0  0
    2.0119   -2.7550    0.5983 C   0  0  0  0  0  0  0  0  0  0  0  0
    2.9410    2.7703   -0.1961 C   0  0  0  0  0  0  0  0  0  0  0  0
    4.6165    0.8666   -0.8603 C   0  0  0  0  0  0  0  0  0  0  0  0
    4.6769   -0.5183   -0.8468 C   0  0  0  0  0  0  0  0  0  0  0  0
    3.2454   -2.6321   -0.1075 C   0  0  0  0  0  0  0  0  0  0  0  0
    5.7941    1.4398   -1.5748 C   0  0  0  0  0  0  0  0  0  0  0  0
    0.9016    3.9701    0.4500 C   0  0  0  0  0  0  0  0  0  0  0  0
    5.9029   -0.9272   -1.5293 C   0  0  0  0  0  0  0  0  0  0  0  0
    1.4552   -4.0219    0.8738 C   0  0  0  0  0  0  0  0  0  0  0  0
    3.4582    3.9945   -0.6913 C   0  0  0  0  0  0  0  0  0  0  0  0
   -3.2682   -1.7906    0.0672 C   0  0  0  0  0  0  0  0  0  0  0  0
    3.8725   -3.8332   -0.5272 C   0  0  0  0  0  0  0  0  0  0  0  0
   -4.0926    0.4978    0.6951 C   0  0  0  0  0  0  0  0  0  0  0  0
   -1.8438    0.8899   -1.3323 C   0  0  0  0  0  0  0  0  0  0  0  0
    1.4446    5.1529   -0.0584 C   0  0  0  0  0  0  0  0  0  0  0  0
    2.7149    5.1712   -0.6080 C   0  0  0  0  0  0  0  0  0  0  0  0
    2.1121   -5.1728    0.4410 C   0  0  0  0  0  0  0  0  0  0  0  0
    3.3066   -5.0814   -0.2524 C   0  0  0  0  0  0  0  0  0  0  0  0
   -5.3436    0.2209   -0.0288 C   0  0  0  0  0  0  0  0  0  0  0  0
   -6.4238   -0.3545    0.6405 C   0  0  0  0  0  0  0  0  0  0  0  0
   -5.4487    0.5319   -1.3845 C   0  0  0  0  0  0  0  0  0  0  0  0
   -7.6088   -0.6191   -0.0459 C   0  0  0  0  0  0  0  0  0  0  0  0
   -6.6337    0.2673   -2.0709 C   0  0  0  0  0  0  0  0  0  0  0  0
   -7.7138   -0.3082   -1.4017 C   0  0  0  0  0  0  0  0  0  0  0  0
   -9.9348   -1.1545   -1.3263 C   0  0  0  0  0  0  0  0  0  0  0  0
   -1.6490    1.8279    0.9355 H   0  0  0  0  0  0  0  0  0  0  0  0
    0.6231   -2.0062    2.6919 H   0  0  0  0  0  0  0  0  0  0  0  0
   -2.1186   -0.1136    2.4904 H   0  0  0  0  0  0  0  0  0  0  0  0
   -1.4094   -2.3552    1.9374 H   0  0  0  0  0  0  0  0  0  0  0  0
   -0.8512   -1.9229    0.3292 H   0  0  0  0  0  0  0  0  0  0  0  0
   -0.7249    1.6490    3.6457 H   0  0  0  0  0  0  0  0  0  0  0  0
   -0.5802    3.0232    2.5678 H   0  0  0  0  0  0  0  0  0  0  0  0
    0.8469    2.3927    3.4070 H   0  0  0  0  0  0  0  0  0  0  0  0
    5.5115    1.9722   -2.4862 H   0  0  0  0  0  0  0  0  0  0  0  0
    6.4161    2.0588   -0.9239 H   0  0  0  0  0  0  0  0  0  0  0  0
   -0.1096    3.9950    0.8384 H   0  0  0  0  0  0  0  0  0  0  0  0
    0.5191   -4.1155    1.4167 H   0  0  0  0  0  0  0  0  0  0  0  0
    4.4358    4.0232   -1.1661 H   0  0  0  0  0  0  0  0  0  0  0  0
   -4.2371   -1.8835   -0.4255 H   0  0  0  0  0  0  0  0  0  0  0  0
   -3.2363   -2.5960    0.8069 H   0  0  0  0  0  0  0  0  0  0  0  0
   -2.5248   -1.9437   -0.7174 H   0  0  0  0  0  0  0  0  0  0  0  0
    4.8072   -3.8110   -1.0757 H   0  0  0  0  0  0  0  0  0  0  0  0
    7.4105    0.2622   -2.4408 H   0  0  0  0  0  0  0  0  0  0  0  0
   -1.4071    1.2163   -2.2836 H   0  0  0  0  0  0  0  0  0  0  0  0
   -2.4765    1.7180   -1.0046 H   0  0  0  0  0  0  0  0  0  0  0  0
   -2.3964   -0.0107   -1.5834 H   0  0  0  0  0  0  0  0  0  0  0  0
    0.8581    6.0673   -0.0256 H   0  0  0  0  0  0  0  0  0  0  0  0
    3.1245    6.0975   -1.0005 H   0  0  0  0  0  0  0  0  0  0  0  0
    1.6814   -6.1480    0.6508 H   0  0  0  0  0  0  0  0  0  0  0  0
    3.8099   -5.9845   -0.5865 H   0  0  0  0  0  0  0  0  0  0  0  0
   -6.3509   -0.6010    1.6967 H   0  0  0  0  0  0  0  0  0  0  0  0
   -4.6237    0.9888   -1.9213 H   0  0  0  0  0  0  0  0  0  0  0  0
   -8.4079   -1.0672    0.5347 H   0  0  0  0  0  0  0  0  0  0  0  0
   -6.7103    0.5136   -3.1264 H   0  0  0  0  0  0  0  0  0  0  0  0
  -10.7755   -1.2897   -2.0147 H   0  0  0  0  0  0  0  0  0  0  0  0
  -10.2805   -0.4914   -0.5261 H   0  0  0  0  0  0  0  0  0  0  0  0
   -9.6638   -2.1483   -0.9539 H   0  0  0  0  0  0  0  0  0  0  0  0
  1 10  1  0  0  0  0
  1 12  1  0  0  0  0
  2 11  1  0  0  0  0
  2 34  1  0  0  0  0
  3 28  2  0  0  0  0
  4 33  2  0  0  0  0
  5 44  1  0  0  0  0
  5 45  1  0  0  0  0
  6 10  1  0  0  0  0
  6 15  1  0  0  0  0
  6 19  1  0  0  0  0
  7 12  1  0  0  0  0
  7 16  1  0  0  0  0
  7 21  1  0  0  0  0
  8 13  1  0  0  0  0
  8 31  1  0  0  0  0
  8 33  1  0  0  0  0
  9 26  1  0  0  0  0
  9 28  1  0  0  0  0
  9 63  1  0  0  0  0
 10 11  1  0  0  0  0
 10 20  1  0  0  0  0
 11 13  1  0  0  0  0
 11 46  1  0  0  0  0
 12 14  1  0  0  0  0
 12 47  1  0  0  0  0
 13 14  1  0  0  0  0
 13 48  1  0  0  0  0
 14 49  1  0  0  0  0
 14 50  1  0  0  0  0
 15 16  2  0  0  0  0
 15 17  1  0  0  0  0
 16 18  1  0  0  0  0
 17 22  1  0  0  0  0
 17 23  2  0  0  0  0
 18 24  2  0  0  0  0
 18 25  1  0  0  0  0
 19 22  1  0  0  0  0
 19 27  2  0  0  0  0
 20 51  1  0  0  0  0
 20 52  1  0  0  0  0
 20 53  1  0  0  0  0
 21 25  1  0  0  0  0
 21 29  2  0  0  0  0
 22 30  2  0  0  0  0
 23 24  1  0  0  0  0
 23 26  1  0  0  0  0
 24 28  1  0  0  0  0
 25 32  2  0  0  0  0
 26 54  1  0  0  0  0
 26 55  1  0  0  0  0
 27 35  1  0  0  0  0
 27 56  1  0  0  0  0
 29 37  1  0  0  0  0
 29 57  1  0  0  0  0
 30 36  1  0  0  0  0
 30 58  1  0  0  0  0
 31 59  1  0  0  0  0
 31 60  1  0  0  0  0
 31 61  1  0  0  0  0
 32 38  1  0  0  0  0
 32 62  1  0  0  0  0
 33 39  1  0  0  0  0
 34 64  1  0  0  0  0
 34 65  1  0  0  0  0
 34 66  1  0  0  0  0
 35 36  2  0  0  0  0
 35 67  1  0  0  0  0
 36 68  1  0  0  0  0
 37 38  2  0  0  0  0
 37 69  1  0  0  0  0
 38 70  1  0  0  0  0
 39 40  2  0  0  0  0
 39 41  1  0  0  0  0
 40 42  1  0  0  0  0
 40 71  1  0  0  0  0
 41 43  2  0  0  0  0
 41 72  1  0  0  0  0
 42 44  2  0  0  0  0
 42 73  1  0  0  0  0
 43 44  1  0  0  0  0
 43 74  1  0  0  0  0
 45 75  1  0  0  0  0
 45 76  1  0  0  0  0
 45 77  1  0  0  0  0
M  END
> <PUBCHEM_COMPOUND_CID>
44352844

> <PUBCHEM_CONFORMER_RMSD>
1

> <PUBCHEM_CONFORMER_DIVERSEORDER>
1
5
3
6
7
4
2

> <PUBCHEM_MMFF94_PARTIAL_CHARGES>
54
1 -0.56
10 0.54
11 0.28
12 0.54
13 0.3
15 -0.05
16 -0.05
17 -0.01
18 -0.01
19 -0.15
2 -0.56
21 -0.15
23 -0.14
24 0.09
26 0.44
27 -0.15
28 0.54
29 -0.15
3 -0.57
30 -0.15
31 0.3
32 -0.15
33 0.54
34 0.28
35 -0.15
36 -0.15
37 -0.15
38 -0.15
39 0.09
4 -0.57
40 -0.15
41 -0.15
42 -0.15
43 -0.15
44 0.08
45 0.28
5 -0.36
56 0.15
57 0.15
58 0.15
6 -0.04
62 0.15
63 0.37
67 0.15
68 0.15
69 0.15
7 -0.04
70 0.15
71 0.15
72 0.15
73 0.15
74 0.15
8 -0.66
9 -0.73

> <PUBCHEM_EFFECTIVE_ROTOR_COUNT>
6.2

> <PUBCHEM_PHARMACOPHORE_FEATURES>
17
1 1 acceptor
1 2 acceptor
1 3 acceptor
1 4 acceptor
1 5 acceptor
1 6 cation
1 7 cation
1 9 donor
5 6 15 17 19 22 rings
5 7 16 18 21 25 rings
5 9 23 24 26 28 rings
6 1 10 11 12 13 14 rings
6 15 16 17 18 23 24 rings
6 19 22 27 30 35 36 rings
6 21 25 29 32 37 38 rings
6 39 40 41 42 43 44 rings
7 1 6 7 10 12 15 16 rings

> <PUBCHEM_HEAVY_ATOM_COUNT>
45

> <PUBCHEM_ATOM_DEF_STEREO_COUNT>
4

> <PUBCHEM_ATOM_UDEF_STEREO_COUNT>
0

> <PUBCHEM_BOND_DEF_STEREO_COUNT>
0

> <PUBCHEM_BOND_UDEF_STEREO_COUNT>
0

> <PUBCHEM_ISOTOPIC_ATOM_COUNT>
0

> <PUBCHEM_COMPONENT_COUNT>
1

> <PUBCHEM_CACTVS_TAUTO_COUNT>
2

> <PUBCHEM_CONFORMER_ID>
02A4C54C00000001

> <PUBCHEM_MMFF94_ENERGY>
219.3992

> <PUBCHEM_FEATURE_SELFOVERLAP>
87.234

> <PUBCHEM_SHAPE_FINGERPRINT>
10622 236 18056476154269114179
10675989 125 18339647835887183136
10693767 8 18201444619292636390
10930396 42 18339908391581090456
11115154 58 17989212521291648889
11181472 205 18411133599398223117
11607047 191 17199357611550543256
12047536 79 7853039155356253135
1361 2 18410860988146697776
13911987 19 18117868619146683652
14068700 675 18059861619432951216
14117953 113 18410018758667819996
14415360 78 18192429890949669668
15082195 135 18410570708540304235
15183329 4 18411700981002876633
15324884 4 17608392442515639896
15439362 3 18122912194557928020
15444296 8 17549837581426981806
15484559 13 18410574002901812206
15950262 2 15214736877330803790
19319366 153 18271800284698160974
20775438 99 17984692574865365652
21133410 127 17250623547554316789
21133410 171 17391046172036217826
22121540 332 17386548224774959357
22899556 105 18196381312591878230
23522609 53 17845113860782665585
23559900 14 18339927124862384801
24771750 20 17971773304158803589
255183 451 18199187291592205975
3388396 114 18192734258460348318
3504750 166 16532561623453546802
3882209 13 17827344489735686714
4066623 53 18041555828867083708
42767 46 17060331934171727831
4353968 344 18051142402690251246
45266715 3 18272367616373098168
46194498 28 18261662719377309613
57527452 28 15913338983134081196
6004065 56 18411421735040781384
6058803 2 17767139609337511634
9831232 110 18338219498296633183

> <PUBCHEM_SHAPE_MULTIPOLES>
876.81
18.55
6.07
1.95
49.55
0.02
-0.35
-5.41
15.8
-11.57
-0.18
0.84
0.28
-0.46

> <PUBCHEM_SHAPE_SELFOVERLAP>
2009.328

> <PUBCHEM_SHAPE_VOLUME>
451.7

> <PUBCHEM_COORDINATE_TYPE>
2
5
10

$$$$
