49830297
  -OEChem-10052115193D

 39 42  0     0  0  0  0  0  0999 V2000
    0.8765   -4.9491   -0.3707 Cl  0  0  0  0  0  0  0  0  0  0  0  0
    4.8558    2.1223    0.9416 O   0  0  0  0  0  0  0  0  0  0  0  0
    2.5961   -0.3538   -0.5083 N   0  0  0  0  0  0  0  0  0  0  0  0
    0.3178   -0.5489   -0.1126 N   0  0  0  0  0  0  0  0  0  0  0  0
    1.7048   -2.4946   -0.4264 N   0  0  0  0  0  0  0  0  0  0  0  0
   -4.0616   -0.4650    1.0799 N   0  0  0  0  0  0  0  0  0  0  0  0
   -4.5949    1.7197    0.2160 N   0  0  0  0  0  0  0  0  0  0  0  0
    2.5387    1.0935   -0.4487 C   0  0  0  0  0  0  0  0  0  0  0  0
    2.4900    1.5619    1.0070 C   0  0  0  0  0  0  0  0  0  0  0  0
    3.7443    1.6918   -1.1753 C   0  0  0  0  0  0  0  0  0  0  0  0
    3.8481    1.4480    1.6934 C   0  0  0  0  0  0  0  0  0  0  0  0
    5.0248    1.5575   -0.3575 C   0  0  0  0  0  0  0  0  0  0  0  0
    1.4921   -1.1675   -0.3411 C   0  0  0  0  0  0  0  0  0  0  0  0
   -1.9989   -0.7331    0.2898 C   0  0  0  0  0  0  0  0  0  0  0  0
   -0.7389   -1.3732    0.0435 C   0  0  0  0  0  0  0  0  0  0  0  0
   -2.4772    0.5345   -0.1358 C   0  0  0  0  0  0  0  0  0  0  0  0
   -3.7653    0.6708    0.3733 C   0  0  0  0  0  0  0  0  0  0  0  0
   -2.9949   -1.3249    1.0361 C   0  0  0  0  0  0  0  0  0  0  0  0
   -0.6541   -2.7491   -0.0209 C   0  0  0  0  0  0  0  0  0  0  0  0
    0.6056   -3.2591   -0.2608 C   0  0  0  0  0  0  0  0  0  0  0  0
   -1.9686    1.5970   -0.9003 C   0  0  0  0  0  0  0  0  0  0  0  0
   -2.7863    2.7088   -1.0946 C   0  0  0  0  0  0  0  0  0  0  0  0
   -4.0539    2.7125   -0.5280 C   0  0  0  0  0  0  0  0  0  0  0  0
    1.6405    1.4422   -0.9740 H   0  0  0  0  0  0  0  0  0  0  0  0
    2.2004    2.6210    1.0057 H   0  0  0  0  0  0  0  0  0  0  0  0
    1.7345    1.0251    1.5903 H   0  0  0  0  0  0  0  0  0  0  0  0
    3.8791    1.2343   -2.1621 H   0  0  0  0  0  0  0  0  0  0  0  0
    3.5493    2.7605   -1.3331 H   0  0  0  0  0  0  0  0  0  0  0  0
    4.1386    0.4007    1.8369 H   0  0  0  0  0  0  0  0  0  0  0  0
    3.8031    1.9143    2.6828 H   0  0  0  0  0  0  0  0  0  0  0  0
    5.3425    0.5128   -0.2642 H   0  0  0  0  0  0  0  0  0  0  0  0
    5.8361    2.1012   -0.8521 H   0  0  0  0  0  0  0  0  0  0  0  0
    3.4886   -0.8146   -0.6425 H   0  0  0  0  0  0  0  0  0  0  0  0
   -3.0546   -2.2735    1.5527 H   0  0  0  0  0  0  0  0  0  0  0  0
   -1.5083   -3.4061    0.0916 H   0  0  0  0  0  0  0  0  0  0  0  0
   -4.9326   -0.6400    1.5615 H   0  0  0  0  0  0  0  0  0  0  0  0
   -0.9757    1.5677   -1.3364 H   0  0  0  0  0  0  0  0  0  0  0  0
   -2.4383    3.5541   -1.6785 H   0  0  0  0  0  0  0  0  0  0  0  0
   -4.7049    3.5711   -0.6697 H   0  0  0  0  0  0  0  0  0  0  0  0
  1 20  1  0  0  0  0
  2 11  1  0  0  0  0
  2 12  1  0  0  0  0
  3  8  1  0  0  0  0
  3 13  1  0  0  0  0
  3 33  1  0  0  0  0
  4 13  2  0  0  0  0
  4 15  1  0  0  0  0
  5 13  1  0  0  0  0
  5 20  2  0  0  0  0
  6 17  1  0  0  0  0
  6 18  1  0  0  0  0
  6 36  1  0  0  0  0
  7 17  1  0  0  0  0
  7 23  2  0  0  0  0
  8  9  1  0  0  0  0
  8 10  1  0  0  0  0
  8 24  1  0  0  0  0
  9 11  1  0  0  0  0
  9 25  1  0  0  0  0
  9 26  1  0  0  0  0
 10 12  1  0  0  0  0
 10 27  1  0  0  0  0
 10 28  1  0  0  0  0
 11 29  1  0  0  0  0
 11 30  1  0  0  0  0
 12 31  1  0  0  0  0
 12 32  1  0  0  0  0
 14 15  1  0  0  0  0
 14 16  1  0  0  0  0
 14 18  2  0  0  0  0
 15 19  2  0  0  0  0
 16 17  2  0  0  0  0
 16 21  1  0  0  0  0
 18 34  1  0  0  0  0
 19 20  1  0  0  0  0
 19 35  1  0  0  0  0
 21 22  2  0  0  0  0
 21 37  1  0  0  0  0
 22 23  1  0  0  0  0
 22 38  1  0  0  0  0
 23 39  1  0  0  0  0
M  END
> <PUBCHEM_COMPOUND_CID>
49830297

> <PUBCHEM_CONFORMER_RMSD>
0.8

> <PUBCHEM_CONFORMER_DIVERSEORDER>
1
21
43
18
56
5
46
27
6
13
14
35
45
12
47
8
24
22
20
55
51
30
10
33
48
9
41
44
31
57
42
11
34
3
28
54
26
49
52
7
38
23
53
36
17
32
40
37
2
39
4
16
29
50
19
15
25

> <PUBCHEM_MMFF94_PARTIAL_CHARGES>
27
1 -0.18
11 0.28
12 0.28
13 0.72
14 -0.05
15 0.36
17 0.11
18 -0.3
19 -0.15
2 -0.56
20 0.49
21 -0.15
22 -0.15
23 0.16
3 -0.87
33 0.4
34 0.15
35 0.15
36 0.27
37 0.15
38 0.15
39 0.15
4 -0.62
5 -0.62
6 0.03
7 -0.57
8 0.37

> <PUBCHEM_EFFECTIVE_ROTOR_COUNT>
4.2

> <PUBCHEM_PHARMACOPHORE_FEATURES>
11
1 2 acceptor
1 3 donor
1 5 acceptor
1 6 cation
1 6 donor
1 7 acceptor
4 3 4 5 13 cation
5 6 14 16 17 18 rings
6 2 8 9 10 11 12 rings
6 4 5 13 15 19 20 rings
6 7 16 17 21 22 23 rings

> <PUBCHEM_HEAVY_ATOM_COUNT>
23

> <PUBCHEM_ATOM_DEF_STEREO_COUNT>
0

> <PUBCHEM_ATOM_UDEF_STEREO_COUNT>
0

> <PUBCHEM_BOND_DEF_STEREO_COUNT>
0

> <PUBCHEM_BOND_UDEF_STEREO_COUNT>
0

> <PUBCHEM_ISOTOPIC_ATOM_COUNT>
0

> <PUBCHEM_COMPONENT_COUNT>
1

> <PUBCHEM_CACTVS_TAUTO_COUNT>
16

> <PUBCHEM_CONFORMER_ID>
02F8599900000001

> <PUBCHEM_MMFF94_ENERGY>
52.9881

> <PUBCHEM_FEATURE_SELFOVERLAP>
55.934

> <PUBCHEM_SHAPE_FINGERPRINT>
10074138 170 17977648037999610042
10165383 225 18270980036344809897
10608611 8 18118129078468599879
10670039 82 18188788248250645084
1100329 8 16899620416305799000
11370993 70 18410852161678103252
11725454 13 17846497088652626756
11833330 49 17619622931301218698
12173636 292 18339359781004464782
12363563 72 8574436447505173440
12403259 415 18341059574757662720
12422481 6 18117531004657572616
12549972 3 17534932704890497931
12596602 18 16588587646589142648
12769317 202 18270678658552783754
12788726 201 17539696111432198658
13134695 92 17620183244091817311
13140716 1 18263359196550884579
13540713 4 18043261141674343073
138480 1 17834115238766845966
14341114 328 17168145675892970648
14468879 13 18260835877900973537
14508225 48 17334487697508773166
15042514 8 17904770225330216042
15230672 131 18408889543352342550
15403338 16 16661465398981346505
20101258 96 17109895976767993594
21033648 29 18343013437170095864
21279426 13 18270973354177303806
21304303 282 17697839835043599150
21524375 3 18343024431985627934
22149856 69 18191611713324053105
23536364 44 17695935240717847564
23559900 14 18049158865657744867
3298306 158 18342179938625825470
350125 39 18337119977203053598
3524813 1 18270402809841248137
469060 322 18193841676833070771
495365 180 18269263574176644893
508706 21 18339927133636662822
5104073 3 18189345576344849609
5265222 85 18192730036781627700
5385378 56 18340774719335625056
57124632 79 18339351951447421282
621550 34 18337968822134776091
6442390 28 18339648931156103542
7064713 232 18334017206755550036
7226269 152 17988921211098195584
7399639 24 18409459093916292595
7808743 9 18121224444309115948
81228 2 17621310673086157610
84936 182 18200313199835353384
9709674 26 18118973482108907887
9862522 239 18335689581204960660
9925002 15 17544767080338867151
9981440 41 18408881849884124347

> <PUBCHEM_SHAPE_MULTIPOLES>
444.42
9.17
4.77
1.12
2.38
5.92
-0.22
-9.99
-1.37
0.87
1.02
0.5
-0.53
1.58

> <PUBCHEM_SHAPE_SELFOVERLAP>
970.271

> <PUBCHEM_SHAPE_VOLUME>
242.3

> <PUBCHEM_COORDINATE_TYPE>
2
5
10

$$$$
