25205762
  -OEChem-10062121543D

 37 39  0     0  0  0  0  0  0999 V2000
    1.7674    3.7205   -0.0638 O   0  0  0  0  0  0  0  0  0  0  0  0
    3.6145    1.9871    1.6398 O   0  0  0  0  0  0  0  0  0  0  0  0
    0.5120    1.1755   -1.5752 N   0  0  0  0  0  0  0  0  0  0  0  0
    2.5507   -0.7318    0.3022 N   0  0  0  0  0  0  0  0  0  0  0  0
    0.1110   -4.1421   -0.1525 N   0  0  0  0  0  0  0  0  0  0  0  0
    1.4247    1.2955   -0.6410 C   0  0  0  0  0  0  0  0  0  0  0  0
    2.2469    0.5246    0.1160 C   0  0  0  0  0  0  0  0  0  0  0  0
   -0.6947    1.9731   -1.6077 C   0  0  0  0  0  0  0  0  0  0  0  0
    1.9157    2.5271   -0.0268 C   0  0  0  0  0  0  0  0  0  0  0  0
    2.8095    1.6887    0.7969 C   0  0  0  0  0  0  0  0  0  0  0  0
   -1.7805    1.3315   -0.8117 C   0  0  0  0  0  0  0  0  0  0  0  0
   -2.4704    0.2353   -1.3294 C   0  0  0  0  0  0  0  0  0  0  0  0
   -2.1068    1.8287    0.4501 C   0  0  0  0  0  0  0  0  0  0  0  0
    1.7278   -1.8818    0.1489 C   0  0  0  0  0  0  0  0  0  0  0  0
   -3.8130    0.1332    0.6766 C   0  0  0  0  0  0  0  0  0  0  0  0
   -3.4867   -0.3638   -0.5852 C   0  0  0  0  0  0  0  0  0  0  0  0
   -3.1231    1.2295    1.1942 C   0  0  0  0  0  0  0  0  0  0  0  0
    2.2908   -3.0987   -0.2195 C   0  0  0  0  0  0  0  0  0  0  0  0
    0.3574   -1.7937    0.3667 C   0  0  0  0  0  0  0  0  0  0  0  0
   -4.8996   -0.5071    1.4725 C   0  0  0  0  0  0  0  0  0  0  0  0
    1.4468   -4.1890   -0.3555 C   0  0  0  0  0  0  0  0  0  0  0  0
   -0.4003   -2.9425    0.2044 C   0  0  0  0  0  0  0  0  0  0  0  0
   -1.0246    2.0656   -2.6503 H   0  0  0  0  0  0  0  0  0  0  0  0
   -0.5153    3.0033   -1.2763 H   0  0  0  0  0  0  0  0  0  0  0  0
    0.4184    0.2928   -2.0754 H   0  0  0  0  0  0  0  0  0  0  0  0
    3.4363   -0.9802    0.7403 H   0  0  0  0  0  0  0  0  0  0  0  0
   -2.2245   -0.1623   -2.3105 H   0  0  0  0  0  0  0  0  0  0  0  0
   -1.5755    2.6804    0.8664 H   0  0  0  0  0  0  0  0  0  0  0  0
   -4.0149   -1.2192   -0.9980 H   0  0  0  0  0  0  0  0  0  0  0  0
   -3.3664    1.6244    2.1770 H   0  0  0  0  0  0  0  0  0  0  0  0
    3.3559   -3.2020   -0.3978 H   0  0  0  0  0  0  0  0  0  0  0  0
   -0.1248   -0.8758    0.6813 H   0  0  0  0  0  0  0  0  0  0  0  0
   -4.4876   -1.3091    2.0929 H   0  0  0  0  0  0  0  0  0  0  0  0
   -5.3948    0.2211    2.1238 H   0  0  0  0  0  0  0  0  0  0  0  0
   -5.6711   -0.9291    0.8195 H   0  0  0  0  0  0  0  0  0  0  0  0
    1.8364   -5.1606   -0.6412 H   0  0  0  0  0  0  0  0  0  0  0  0
   -1.4725   -2.9288    0.3697 H   0  0  0  0  0  0  0  0  0  0  0  0
  1  9  2  0  0  0  0
  2 10  2  0  0  0  0
  3  6  1  0  0  0  0
  3  8  1  0  0  0  0
  3 25  1  0  0  0  0
  4  7  1  0  0  0  0
  4 14  1  0  0  0  0
  4 26  1  0  0  0  0
  5 21  2  0  0  0  0
  5 22  1  0  0  0  0
  6  7  2  0  0  0  0
  6  9  1  0  0  0  0
  7 10  1  0  0  0  0
  8 11  1  0  0  0  0
  8 23  1  0  0  0  0
  8 24  1  0  0  0  0
  9 10  1  0  0  0  0
 11 12  2  0  0  0  0
 11 13  1  0  0  0  0
 12 16  1  0  0  0  0
 12 27  1  0  0  0  0
 13 17  2  0  0  0  0
 13 28  1  0  0  0  0
 14 18  2  0  0  0  0
 14 19  1  0  0  0  0
 15 16  2  0  0  0  0
 15 17  1  0  0  0  0
 15 20  1  0  0  0  0
 16 29  1  0  0  0  0
 17 30  1  0  0  0  0
 18 21  1  0  0  0  0
 18 31  1  0  0  0  0
 19 22  2  0  0  0  0
 19 32  1  0  0  0  0
 20 33  1  0  0  0  0
 20 34  1  0  0  0  0
 20 35  1  0  0  0  0
 21 36  1  0  0  0  0
 22 37  1  0  0  0  0
M  END
> <PUBCHEM_COMPOUND_CID>
25205762

> <PUBCHEM_CONFORMER_RMSD>
0.8

> <PUBCHEM_CONFORMER_DIVERSEORDER>
2
74
128
46
81
115
116
1
103
82
124
31
69
4
101
66
73
112
98
87
72
5
13
105
50
49
42
89
38
92
23
119
59
33
99
90
86
79
108
106
47
28
88
113
97
37
121
109
6
43
16
17
95
61
44
60
118
111
117
78
94
100
77
63
35
110
26
84
55
76
56
27
126
25
9
20
18
39
40
75
120
70
83
93
102
51
21
24
85
10
11
54
22
114
48
7
80
68
104
34
3
14
30
29
107
122
125
64
15
57
58
32
41
65
19
67
36
71
127
8
45
123
52
12
62
96
91
53

> <PUBCHEM_MMFF94_PARTIAL_CHARGES>
32
1 -0.57
10 0.64
11 -0.14
12 -0.15
13 -0.15
14 0.1
15 -0.14
16 -0.15
17 -0.15
18 -0.15
19 -0.15
2 -0.57
20 0.14
21 0.16
22 0.16
25 0.4
26 0.4
27 0.15
28 0.15
29 0.15
3 -0.87
30 0.15
31 0.15
32 0.15
36 0.15
37 0.15
4 -0.6
5 -0.62
6 0.03
7 0.03
8 0.51
9 0.64

> <PUBCHEM_EFFECTIVE_ROTOR_COUNT>
5

> <PUBCHEM_PHARMACOPHORE_FEATURES>
10
1 1 acceptor
1 2 acceptor
1 3 cation
1 3 donor
1 4 cation
1 4 donor
1 5 acceptor
4 6 7 9 10 rings
6 11 12 13 15 16 17 rings
6 5 14 18 19 21 22 rings

> <PUBCHEM_HEAVY_ATOM_COUNT>
22

> <PUBCHEM_ATOM_DEF_STEREO_COUNT>
0

> <PUBCHEM_ATOM_UDEF_STEREO_COUNT>
0

> <PUBCHEM_BOND_DEF_STEREO_COUNT>
0

> <PUBCHEM_BOND_UDEF_STEREO_COUNT>
0

> <PUBCHEM_ISOTOPIC_ATOM_COUNT>
0

> <PUBCHEM_COMPONENT_COUNT>
1

> <PUBCHEM_CACTVS_TAUTO_COUNT>
11

> <PUBCHEM_CONFORMER_ID>
01809C0200000002

> <PUBCHEM_MMFF94_ENERGY>
69.5746

> <PUBCHEM_FEATURE_SELFOVERLAP>
50.747

> <PUBCHEM_SHAPE_FINGERPRINT>
10064457 181 18268717288496145024
11370993 70 18339352080344237849
114674 6 18187934932701520643
11578080 2 16404447748428489504
12035758 1 18411691085588488578
12054548 360 17761495789923955678
12506688 2 17904765483706705750
12553582 1 17547283411230228350
12633257 1 18195799889419347688
12788726 201 17331122109516489111
12954195 1 17328882392185007252
13140716 1 18191023619487173410
13533116 47 18267872692685225393
138480 1 18194684761078817298
14081887 123 16972225051727585152
14223421 5 18337111151308861453
14251757 5 16541598517990222486
14787075 74 17554033730226003237
14863182 85 18189916347006383359
14932701 244 17191541930765831286
15209289 33 18412834577085191796
17138139 8 17266625780213790439
17974551 9 17910971149072948585
19591789 44 18410006599240845598
19734167 9 17983001538492111200
1979834 28 18190482600274997931
19930381 70 18411142441838489459
21197605 99 17901682775916780739
21202864 24 18120359111425322672
21315764 371 18057339490135273579
238 59 17973968882950311039
2748010 2 18044358453487871948
3737641 26 18051991216153442398
5282274 181 18335986487935907722
6287921 2 18341336621612866619
6438718 38 17409943851975886175
6443956 14 18191872210694032901
7097593 13 18127980693805302881
7226269 152 14730587062130384893
81228 2 17469031619974372520

> <PUBCHEM_SHAPE_MULTIPOLES>
426.07
6.43
5.01
1.32
6.4
3.06
-0.08
0.34
2.65
-5.23
-0.09
0.66
-0.62
1.09

> <PUBCHEM_SHAPE_SELFOVERLAP>
928.855

> <PUBCHEM_SHAPE_VOLUME>
228.7

> <PUBCHEM_COORDINATE_TYPE>
2
5
10

$$$$
