44340751
  -OEChem-10052115143D

 71 77  0     1  0  0  0  0  0999 V2000
   -3.9808   -0.8614    0.7972 O   0  0  0  0  0  0  0  0  0  0  0  0
   -3.0203    1.4057   -1.9447 O   0  0  0  0  0  0  0  0  0  0  0  0
   -5.1634    2.1994   -0.3857 O   0  0  0  0  0  0  0  0  0  0  0  0
   -7.3223    0.4629    0.0345 O   0  0  0  0  0  0  0  0  0  0  0  0
   -5.2878   -1.6747    3.0708 O   0  0  0  0  0  0  0  0  0  0  0  0
    3.3332   -2.4534   -0.7210 O   0  0  0  0  0  0  0  0  0  0  0  0
    4.1998    2.0891   -0.3326 O   0  0  0  0  0  0  0  0  0  0  0  0
   -0.3606   -5.8710   -0.7587 O   0  0  0  0  0  0  0  0  0  0  0  0
    7.7958    0.9357    0.0314 O   0  0  0  0  0  0  0  0  0  0  0  0
    6.4221   -2.3011    2.3732 O   0  0  0  0  0  0  0  0  0  0  0  0
   -1.7952   -0.5768   -0.1052 N   0  0  0  0  0  0  0  0  0  0  0  0
   -1.2749    2.1462    0.1278 N   0  0  0  0  0  0  0  0  0  0  0  0
    4.1457   -0.2520   -0.5651 N   0  0  0  0  0  0  0  0  0  0  0  0
    5.4914   -0.4885   -0.7009 N   0  0  0  0  0  0  0  0  0  0  0  0
   -3.1581    0.0633    0.0728 C   0  0  1  0  0  0  0  0  0  0  0  0
   -3.8043    0.4209   -1.2784 C   0  0  1  0  0  0  0  0  0  0  0  0
   -0.5282   -0.1079   -0.1630 C   0  0  0  0  0  0  0  0  0  0  0  0
   -5.2278    0.9473   -1.0747 C   0  0  1  0  0  0  0  0  0  0  0  0
   -6.0270   -0.0557   -0.2400 C   0  0  1  0  0  0  0  0  0  0  0  0
   -5.2948   -0.3662    1.0723 C   0  0  1  0  0  0  0  0  0  0  0  0
    0.6084   -0.9652   -0.3442 C   0  0  0  0  0  0  0  0  0  0  0  0
   -1.5777   -1.9375   -0.2608 C   0  0  0  0  0  0  0  0  0  0  0  0
   -0.2663    1.2623   -0.0456 C   0  0  0  0  0  0  0  0  0  0  0  0
   -0.1751   -2.2080   -0.4048 C   0  0  0  0  0  0  0  0  0  0  0  0
    1.9367   -0.5537   -0.4128 C   0  0  0  0  0  0  0  0  0  0  0  0
    1.1103    1.6612   -0.1192 C   0  0  0  0  0  0  0  0  0  0  0  0
    2.1970    0.8092   -0.2961 C   0  0  0  0  0  0  0  0  0  0  0  0
    0.8385    3.0964    0.0497 C   0  0  0  0  0  0  0  0  0  0  0  0
   -6.0224   -1.4327    1.8850 C   0  0  0  0  0  0  0  0  0  0  0  0
   -0.5695    3.3385    0.1911 C   0  0  0  0  0  0  0  0  0  0  0  0
    3.2020   -1.2529   -0.5884 C   0  0  0  0  0  0  0  0  0  0  0  0
   -2.5343   -2.9639   -0.2844 C   0  0  0  0  0  0  0  0  0  0  0  0
    3.6350    1.0153   -0.3945 C   0  0  0  0  0  0  0  0  0  0  0  0
    0.2072   -3.5608   -0.5729 C   0  0  0  0  0  0  0  0  0  0  0  0
   -2.1040   -4.2805   -0.4531 C   0  0  0  0  0  0  0  0  0  0  0  0
   -0.7547   -4.5765   -0.5953 C   0  0  0  0  0  0  0  0  0  0  0  0
    1.6949    4.2230    0.0939 C   0  0  0  0  0  0  0  0  0  0  0  0
   -1.0826    4.6329    0.3659 C   0  0  0  0  0  0  0  0  0  0  0  0
    6.1020   -0.6841    0.6072 C   0  0  0  0  0  0  0  0  0  0  0  0
    1.1728    5.5093    0.2688 C   0  0  0  0  0  0  0  0  0  0  0  0
   -0.1949    5.7089    0.4025 C   0  0  0  0  0  0  0  0  0  0  0  0
    7.5989   -0.3899    0.5079 C   0  0  0  0  0  0  0  0  0  0  0  0
    5.8355   -2.1132    1.0903 C   0  0  0  0  0  0  0  0  0  0  0  0
   -3.0356    0.8529    0.8055 H   0  0  0  0  0  0  0  0  0  0  0  0
   -3.8415   -0.4708   -1.9165 H   0  0  0  0  0  0  0  0  0  0  0  0
   -5.7186    1.1493   -2.0323 H   0  0  0  0  0  0  0  0  0  0  0  0
   -6.1462   -0.9806   -0.8186 H   0  0  0  0  0  0  0  0  0  0  0  0
   -5.2079    0.5229    1.7095 H   0  0  0  0  0  0  0  0  0  0  0  0
   -6.0786   -2.3749    1.3296 H   0  0  0  0  0  0  0  0  0  0  0  0
   -7.0324   -1.1118    2.1569 H   0  0  0  0  0  0  0  0  0  0  0  0
   -2.2665    2.1062    0.0139 H   0  0  0  0  0  0  0  0  0  0  0  0
   -3.6017   -2.7901   -0.2322 H   0  0  0  0  0  0  0  0  0  0  0  0
    1.2559   -3.8170   -0.6858 H   0  0  0  0  0  0  0  0  0  0  0  0
   -3.4608    1.6096   -2.7872 H   0  0  0  0  0  0  0  0  0  0  0  0
   -4.6728    2.0977    0.4439 H   0  0  0  0  0  0  0  0  0  0  0  0
   -7.7493    0.6512   -0.8186 H   0  0  0  0  0  0  0  0  0  0  0  0
   -2.8417   -5.0789   -0.4839 H   0  0  0  0  0  0  0  0  0  0  0  0
    2.7692    4.1074   -0.0068 H   0  0  0  0  0  0  0  0  0  0  0  0
   -2.1507    4.7989    0.4712 H   0  0  0  0  0  0  0  0  0  0  0  0
    5.8984    0.3273   -1.1582 H   0  0  0  0  0  0  0  0  0  0  0  0
    5.6970    0.0322    1.3363 H   0  0  0  0  0  0  0  0  0  0  0  0
   -5.7647   -2.3600    3.5692 H   0  0  0  0  0  0  0  0  0  0  0  0
    1.8475    6.3607    0.3000 H   0  0  0  0  0  0  0  0  0  0  0  0
   -0.5809    6.7160    0.5374 H   0  0  0  0  0  0  0  0  0  0  0  0
    8.0963   -1.0818   -0.1812 H   0  0  0  0  0  0  0  0  0  0  0  0
    8.0804   -0.4713    1.4878 H   0  0  0  0  0  0  0  0  0  0  0  0
    4.7710   -2.3096    1.2233 H   0  0  0  0  0  0  0  0  0  0  0  0
    6.2557   -2.8563    0.4038 H   0  0  0  0  0  0  0  0  0  0  0  0
    0.6080   -5.8991   -0.8421 H   0  0  0  0  0  0  0  0  0  0  0  0
    8.7560    1.0820   -0.0160 H   0  0  0  0  0  0  0  0  0  0  0  0
    6.2395   -3.2184    2.6396 H   0  0  0  0  0  0  0  0  0  0  0  0
  1 15  1  0  0  0  0
  1 20  1  0  0  0  0
  2 16  1  0  0  0  0
  2 54  1  0  0  0  0
  3 18  1  0  0  0  0
  3 55  1  0  0  0  0
  4 19  1  0  0  0  0
  4 56  1  0  0  0  0
  5 29  1  0  0  0  0
  5 62  1  0  0  0  0
  6 31  2  0  0  0  0
  7 33  2  0  0  0  0
  8 36  1  0  0  0  0
  8 69  1  0  0  0  0
  9 42  1  0  0  0  0
  9 70  1  0  0  0  0
 10 43  1  0  0  0  0
 10 71  1  0  0  0  0
 11 15  1  0  0  0  0
 11 17  1  0  0  0  0
 11 22  1  0  0  0  0
 12 23  1  0  0  0  0
 12 30  1  0  0  0  0
 12 51  1  0  0  0  0
 13 14  1  0  0  0  0
 13 31  1  0  0  0  0
 13 33  1  0  0  0  0
 14 39  1  0  0  0  0
 14 60  1  0  0  0  0
 15 16  1  0  0  0  0
 15 44  1  0  0  0  0
 16 18  1  0  0  0  0
 16 45  1  0  0  0  0
 17 21  1  0  0  0  0
 17 23  2  0  0  0  0
 18 19  1  0  0  0  0
 18 46  1  0  0  0  0
 19 20  1  0  0  0  0
 19 47  1  0  0  0  0
 20 29  1  0  0  0  0
 20 48  1  0  0  0  0
 21 24  1  0  0  0  0
 21 25  2  0  0  0  0
 22 24  2  0  0  0  0
 22 32  1  0  0  0  0
 23 26  1  0  0  0  0
 24 34  1  0  0  0  0
 25 27  1  0  0  0  0
 25 31  1  0  0  0  0
 26 27  2  0  0  0  0
 26 28  1  0  0  0  0
 27 33  1  0  0  0  0
 28 30  1  0  0  0  0
 28 37  2  0  0  0  0
 29 49  1  0  0  0  0
 29 50  1  0  0  0  0
 30 38  2  0  0  0  0
 32 35  2  0  0  0  0
 32 52  1  0  0  0  0
 34 36  2  0  0  0  0
 34 53  1  0  0  0  0
 35 36  1  0  0  0  0
 35 57  1  0  0  0  0
 37 40  1  0  0  0  0
 37 58  1  0  0  0  0
 38 41  1  0  0  0  0
 38 59  1  0  0  0  0
 39 42  1  0  0  0  0
 39 43  1  0  0  0  0
 39 61  1  0  0  0  0
 40 41  2  0  0  0  0
 40 63  1  0  0  0  0
 41 64  1  0  0  0  0
 42 65  1  0  0  0  0
 42 66  1  0  0  0  0
 43 67  1  0  0  0  0
 43 68  1  0  0  0  0
M  END
> <PUBCHEM_COMPOUND_CID>
44340751

> <PUBCHEM_CONFORMER_RMSD>
1

> <PUBCHEM_CONFORMER_DIVERSEORDER>
2
21
28
17
13
22
24
11
25
6
19
27
18
20
16
26
10
23
12
3
8
14
7
4
9
15
1
5

> <PUBCHEM_MMFF94_PARTIAL_CHARGES>
57
1 -0.56
10 -0.68
11 -0.04
12 -0.05
13 -0.11
14 -0.64
15 0.54
16 0.28
17 -0.05
18 0.28
19 0.28
2 -0.68
20 0.28
21 -0.01
22 -0.15
23 -0.05
25 0.09
26 -0.01
27 0.09
29 0.28
3 -0.68
30 -0.15
31 0.54
32 -0.15
33 0.54
34 -0.15
35 -0.15
36 0.08
37 -0.15
38 -0.15
39 0.27
4 -0.68
40 -0.15
41 -0.15
42 0.28
43 0.28
5 -0.68
51 0.27
52 0.15
53 0.15
54 0.4
55 0.4
56 0.4
57 0.15
58 0.15
59 0.15
6 -0.57
60 0.36
62 0.4
63 0.15
64 0.15
69 0.45
7 -0.57
70 0.4
71 0.4
8 -0.53
9 -0.68

> <PUBCHEM_EFFECTIVE_ROTOR_COUNT>
7.4

> <PUBCHEM_PHARMACOPHORE_FEATURES>
27
1 1 acceptor
1 10 acceptor
1 10 donor
1 11 cation
1 12 cation
1 12 donor
1 14 donor
1 2 acceptor
1 2 donor
1 3 acceptor
1 3 donor
1 4 acceptor
1 4 donor
1 5 acceptor
1 5 donor
1 6 acceptor
1 7 acceptor
1 8 donor
1 9 acceptor
1 9 donor
5 11 17 21 22 24 rings
5 12 23 26 28 30 rings
5 13 25 27 31 33 rings
6 1 15 16 18 19 20 rings
6 17 21 23 25 26 27 rings
6 22 24 32 34 35 36 rings
6 28 30 37 38 40 41 rings

> <PUBCHEM_HEAVY_ATOM_COUNT>
43

> <PUBCHEM_ATOM_DEF_STEREO_COUNT>
0

> <PUBCHEM_ATOM_UDEF_STEREO_COUNT>
5

> <PUBCHEM_BOND_DEF_STEREO_COUNT>
0

> <PUBCHEM_BOND_UDEF_STEREO_COUNT>
0

> <PUBCHEM_ISOTOPIC_ATOM_COUNT>
0

> <PUBCHEM_COMPONENT_COUNT>
1

> <PUBCHEM_CACTVS_TAUTO_COUNT>
24

> <PUBCHEM_CONFORMER_ID>
02A4960F00000002

> <PUBCHEM_MMFF94_ENERGY>
162.4426

> <PUBCHEM_FEATURE_SELFOVERLAP>
137.541

> <PUBCHEM_SHAPE_FINGERPRINT>
10050765 1 17979917429713787895
102385 1 17836361927453339559
10930396 42 18126252360753403138
1100329 8 18339924934233462381
11456790 92 18334586711846897713
12058002 1 17199991917784059615
12788726 201 18335704889074980856
13140716 1 18269271447226205860
13782708 43 17749391494231347563
13911987 19 18337381661112688477
14028597 1 17895747384267923952
140371 6 18342466945404544140
14068700 686 18055069861637977222
14117953 113 18341898476401868814
14394314 77 18411134766684464986
14790565 3 18340214007435217741
14937079 2 18412263977864185445
14955137 171 18409173224802493913
15131766 46 14834684077936438642
15320467 1 18411983550505346341
15324884 4 17824527790274759533
15439362 3 18196927988803561293
15815584 197 18197797526401607735
15927050 60 17908146829744094573
16087824 20 18339645538728603709
16728300 4 17680126509557583682
18681886 176 18340760520606313035
19319366 153 17894628150003404354
19841028 212 17241600638453204914
20642791 105 18193830441188386616
20775438 99 17190614342309476751
21796203 349 18120404117901977113
22223350 30 18056750147054216386
22311459 1 18412544302421864756
23559900 14 18270110340265230544
24771293 8 18131636672730004745
24771750 20 17975992164914173028
283562 15 18198903608685819712
3178227 256 18338248119615523019
335352 9 18411699915413215780
3383291 50 18412544310231746498
42626532 9 16662356098200472801
469060 322 18269849609516525049
57527358 35 16009897063461420213
6004065 56 18341885308185132911
6086070 43 18264750199605070783
9896288 288 17981324495945511736

> <PUBCHEM_SHAPE_MULTIPOLES>
806.3
14.99
7.16
1.29
9.59
3.89
0.8
-5.05
5.32
0.07
-0.16
-1.15
-0.74
0.12

> <PUBCHEM_SHAPE_SELFOVERLAP>
1817.817

> <PUBCHEM_SHAPE_VOLUME>
421.3

> <PUBCHEM_COORDINATE_TYPE>
2
5
10

$$$$
