49830404
  -OEChem-10052115193D

 70 76  0     0  0  0  0  0  0999 V2000
    4.3711    3.4006   -2.5427 S   0  0  0  0  0  0  0  0  0  0  0  0
   -0.0162    0.4828   -1.7404 O   0  0  0  0  0  0  0  0  0  0  0  0
   -2.0205    2.3851    0.1886 O   0  0  0  0  0  0  0  0  0  0  0  0
   -1.7977   -1.0939   -1.9367 N   0  0  0  0  0  0  0  0  0  0  0  0
    4.0710    1.2421   -1.1907 N   0  0  0  0  0  0  0  0  0  0  0  0
    1.5612   -3.5956    0.5543 N   0  0  0  0  0  0  0  0  0  0  0  0
    2.7964    2.8346   -0.2800 N   0  0  0  0  0  0  0  0  0  0  0  0
    2.5308   -1.4893    0.2161 N   0  0  0  0  0  0  0  0  0  0  0  0
    3.8656   -3.3701    0.9155 N   0  0  0  0  0  0  0  0  0  0  0  0
   -1.7418    1.8072    2.4522 N   0  0  0  0  0  0  0  0  0  0  0  0
   -2.7939   -0.1534   -3.8299 C   0  0  0  0  0  0  0  0  0  0  0  0
   -3.0319   -1.1302   -2.6973 C   0  0  0  0  0  0  0  0  0  0  0  0
   -1.8699    0.8789   -3.2154 C   0  0  0  0  0  0  0  0  0  0  0  0
   -1.0679    0.0784   -2.2145 C   0  0  0  0  0  0  0  0  0  0  0  0
   -1.4599   -2.1015   -0.9854 C   0  0  0  0  0  0  0  0  0  0  0  0
   -0.1219   -2.3543   -0.6824 C   0  0  0  0  0  0  0  0  0  0  0  0
   -2.4676   -2.8342   -0.3581 C   0  0  0  0  0  0  0  0  0  0  0  0
    0.2084   -3.3399    0.2477 C   0  0  0  0  0  0  0  0  0  0  0  0
    3.4556    0.6408   -0.1359 C   0  0  0  0  0  0  0  0  0  0  0  0
    2.6729    1.6440    0.4121 C   0  0  0  0  0  0  0  0  0  0  0  0
   -2.1372   -3.8200    0.5719 C   0  0  0  0  0  0  0  0  0  0  0  0
   -0.7993   -4.0728    0.8750 C   0  0  0  0  0  0  0  0  0  0  0  0
    1.8260    1.4960    1.5585 C   0  0  0  0  0  0  0  0  0  0  0  0
    3.6498   -0.7358    0.2346 C   0  0  0  0  0  0  0  0  0  0  0  0
    3.6432    2.5342   -1.2250 C   0  0  0  0  0  0  0  0  0  0  0  0
    2.7084   -2.7787    0.5624 C   0  0  0  0  0  0  0  0  0  0  0  0
    4.9656    0.8858   -2.1718 C   0  0  0  0  0  0  0  0  0  0  0  0
    0.4544    1.7238    1.4470 C   0  0  0  0  0  0  0  0  0  0  0  0
    2.3738    1.1244    2.7864 C   0  0  0  0  0  0  0  0  0  0  0  0
   -0.3696    1.5799    2.5633 C   0  0  0  0  0  0  0  0  0  0  0  0
    4.8953   -1.2208    0.5780 C   0  0  0  0  0  0  0  0  0  0  0  0
    5.2396    1.9197   -2.9855 C   0  0  0  0  0  0  0  0  0  0  0  0
    1.5498    0.9808    3.9027 C   0  0  0  0  0  0  0  0  0  0  0  0
    0.1780    1.2083    3.7912 C   0  0  0  0  0  0  0  0  0  0  0  0
    4.9436   -2.5587    0.9128 C   0  0  0  0  0  0  0  0  0  0  0  0
   -3.9509    2.3251    1.6311 C   0  0  0  0  0  0  0  0  0  0  0  0
   -2.4709    2.1838    1.3120 C   0  0  0  0  0  0  0  0  0  0  0  0
   -4.8282    1.4028    0.8257 C   0  0  0  0  0  0  0  0  0  0  0  0
   -5.3382    1.8221   -0.4031 C   0  0  0  0  0  0  0  0  0  0  0  0
   -5.1306    0.1297    1.3086 C   0  0  0  0  0  0  0  0  0  0  0  0
   -6.1507    0.9681   -1.1491 C   0  0  0  0  0  0  0  0  0  0  0  0
   -5.9430   -0.7244    0.5626 C   0  0  0  0  0  0  0  0  0  0  0  0
   -6.4528   -0.3052   -0.6663 C   0  0  0  0  0  0  0  0  0  0  0  0
   -3.7195    0.2778   -4.2211 H   0  0  0  0  0  0  0  0  0  0  0  0
   -2.2806   -0.6605   -4.6565 H   0  0  0  0  0  0  0  0  0  0  0  0
   -3.8467   -0.7900   -2.0532 H   0  0  0  0  0  0  0  0  0  0  0  0
   -3.2404   -2.1377   -3.0705 H   0  0  0  0  0  0  0  0  0  0  0  0
   -2.4300    1.6517   -2.6796 H   0  0  0  0  0  0  0  0  0  0  0  0
   -1.2181    1.3388   -3.9621 H   0  0  0  0  0  0  0  0  0  0  0  0
    0.6541   -1.8312   -1.2296 H   0  0  0  0  0  0  0  0  0  0  0  0
   -3.5183   -2.6554   -0.5668 H   0  0  0  0  0  0  0  0  0  0  0  0
   -2.9218   -4.3890    1.0620 H   0  0  0  0  0  0  0  0  0  0  0  0
   -0.5553   -4.8425    1.6027 H   0  0  0  0  0  0  0  0  0  0  0  0
    1.7337   -4.5142    0.9518 H   0  0  0  0  0  0  0  0  0  0  0  0
    5.3675   -0.1134   -2.2415 H   0  0  0  0  0  0  0  0  0  0  0  0
    0.0877    2.0175    0.4736 H   0  0  0  0  0  0  0  0  0  0  0  0
    3.4413    0.9503    2.8984 H   0  0  0  0  0  0  0  0  0  0  0  0
    5.7863   -0.6057    0.5952 H   0  0  0  0  0  0  0  0  0  0  0  0
    5.9120    1.8870   -3.8311 H   0  0  0  0  0  0  0  0  0  0  0  0
    1.9765    0.6932    4.8592 H   0  0  0  0  0  0  0  0  0  0  0  0
   -0.4518    1.0925    4.6696 H   0  0  0  0  0  0  0  0  0  0  0  0
    5.8785   -3.0292    1.1979 H   0  0  0  0  0  0  0  0  0  0  0  0
   -2.2644    1.6764    3.3154 H   0  0  0  0  0  0  0  0  0  0  0  0
   -4.1515    2.1733    2.6984 H   0  0  0  0  0  0  0  0  0  0  0  0
   -4.2260    3.3695    1.4345 H   0  0  0  0  0  0  0  0  0  0  0  0
   -5.1073    2.8104   -0.7917 H   0  0  0  0  0  0  0  0  0  0  0  0
   -4.7362   -0.2092    2.2629 H   0  0  0  0  0  0  0  0  0  0  0  0
   -6.5456    1.2934   -2.1070 H   0  0  0  0  0  0  0  0  0  0  0  0
   -6.1763   -1.7167    0.9373 H   0  0  0  0  0  0  0  0  0  0  0  0
   -7.0833   -0.9711   -1.2482 H   0  0  0  0  0  0  0  0  0  0  0  0
  1 25  1  0  0  0  0
  1 32  1  0  0  0  0
  2 14  2  0  0  0  0
  3 37  2  0  0  0  0
  4 12  1  0  0  0  0
  4 14  1  0  0  0  0
  4 15  1  0  0  0  0
  5 19  1  0  0  0  0
  5 25  1  0  0  0  0
  5 27  1  0  0  0  0
  6 18  1  0  0  0  0
  6 26  1  0  0  0  0
  6 54  1  0  0  0  0
  7 20  1  0  0  0  0
  7 25  2  0  0  0  0
  8 24  2  0  0  0  0
  8 26  1  0  0  0  0
  9 26  2  0  0  0  0
  9 35  1  0  0  0  0
 10 30  1  0  0  0  0
 10 37  1  0  0  0  0
 10 63  1  0  0  0  0
 11 12  1  0  0  0  0
 11 13  1  0  0  0  0
 11 44  1  0  0  0  0
 11 45  1  0  0  0  0
 12 46  1  0  0  0  0
 12 47  1  0  0  0  0
 13 14  1  0  0  0  0
 13 48  1  0  0  0  0
 13 49  1  0  0  0  0
 15 16  1  0  0  0  0
 15 17  2  0  0  0  0
 16 18  2  0  0  0  0
 16 50  1  0  0  0  0
 17 21  1  0  0  0  0
 17 51  1  0  0  0  0
 18 22  1  0  0  0  0
 19 20  2  0  0  0  0
 19 24  1  0  0  0  0
 20 23  1  0  0  0  0
 21 22  2  0  0  0  0
 21 52  1  0  0  0  0
 22 53  1  0  0  0  0
 23 28  2  0  0  0  0
 23 29  1  0  0  0  0
 24 31  1  0  0  0  0
 27 32  2  0  0  0  0
 27 55  1  0  0  0  0
 28 30  1  0  0  0  0
 28 56  1  0  0  0  0
 29 33  2  0  0  0  0
 29 57  1  0  0  0  0
 30 34  2  0  0  0  0
 31 35  2  0  0  0  0
 31 58  1  0  0  0  0
 32 59  1  0  0  0  0
 33 34  1  0  0  0  0
 33 60  1  0  0  0  0
 34 61  1  0  0  0  0
 35 62  1  0  0  0  0
 36 37  1  0  0  0  0
 36 38  1  0  0  0  0
 36 64  1  0  0  0  0
 36 65  1  0  0  0  0
 38 39  2  0  0  0  0
 38 40  1  0  0  0  0
 39 41  1  0  0  0  0
 39 66  1  0  0  0  0
 40 42  2  0  0  0  0
 40 67  1  0  0  0  0
 41 43  2  0  0  0  0
 41 68  1  0  0  0  0
 42 43  1  0  0  0  0
 42 69  1  0  0  0  0
 43 70  1  0  0  0  0
M  END
> <PUBCHEM_COMPOUND_CID>
49830404

> <PUBCHEM_CONFORMER_RMSD>
1.6

> <PUBCHEM_CONFORMER_DIVERSEORDER>
1
101
130
179
39
7
56
115
43
160
87
144
196
141
33
203
51
204
210
183
159
69
140
165
170
58
113
207
149
172
153
135
178
176
182
125
192
4
156
65
118
211
110
109
46
28
193
94
206
11
62
90
157
128
191
88
147
49
138
30
83
97
96
59
15
9
131
120
44
186
103
111
127
197
171
14
74
143
100
137
61
123
37
117
200
173
177
81
136
145
53
190
63
3
164
84
154
26
18
70
60
105
163
54
106
205
168
122
166
189
146
114
133
107
209
201
95
158
55
151
167
29
91
12
67
71
20
35
27
5
99
80
208
150
85
198
108
104
82
48
41
93
184
23
112
195
126
174
119
202
24
40
139
22
129
187
180
31
25
66
47
64
72
79
98
116
57
199
73
75
76
92
155
132
121
162
124
34
6
38
185
17
152
78
21
188
2
36
45
50
181
89
86
10
134
161
148
68
8
32
142
102
19
194
77
42
16
13
52
175
169

> <PUBCHEM_MMFF94_PARTIAL_CHARGES>
61
1 -0.16
10 -0.55
12 0.3
13 0.06
14 0.57
15 0.12
16 -0.15
17 -0.15
18 0.1
19 -0.2
2 -0.57
20 0.17
21 -0.15
22 -0.15
23 0.05
24 0.36
25 0.24
26 0.72
27 -0.18
28 -0.15
29 -0.15
3 -0.57
30 0.12
31 -0.15
32 -0.05
33 -0.15
34 -0.15
35 0.16
36 0.2
37 0.57
38 -0.14
39 -0.15
4 -0.48
40 -0.15
41 -0.15
42 -0.15
43 -0.15
5 0.33
50 0.15
51 0.15
52 0.15
53 0.15
54 0.4
55 0.15
56 0.15
57 0.15
58 0.15
59 0.15
6 -0.6
60 0.15
61 0.15
62 0.15
63 0.37
66 0.15
67 0.15
68 0.15
69 0.15
7 -0.57
70 0.15
8 -0.62
9 -0.62

> <PUBCHEM_EFFECTIVE_ROTOR_COUNT>
9.8

> <PUBCHEM_PHARMACOPHORE_FEATURES>
14
1 10 donor
1 2 acceptor
1 3 acceptor
1 6 donor
1 8 acceptor
3 5 7 25 cation
4 6 8 9 26 cation
5 1 5 25 27 32 rings
5 4 11 12 13 14 rings
5 5 7 19 20 25 rings
6 15 16 17 18 21 22 rings
6 23 28 29 30 33 34 rings
6 38 39 40 41 42 43 rings
6 8 9 24 26 31 35 rings

> <PUBCHEM_HEAVY_ATOM_COUNT>
43

> <PUBCHEM_ATOM_DEF_STEREO_COUNT>
0

> <PUBCHEM_ATOM_UDEF_STEREO_COUNT>
0

> <PUBCHEM_BOND_DEF_STEREO_COUNT>
0

> <PUBCHEM_BOND_UDEF_STEREO_COUNT>
0

> <PUBCHEM_ISOTOPIC_ATOM_COUNT>
0

> <PUBCHEM_COMPONENT_COUNT>
1

> <PUBCHEM_CACTVS_TAUTO_COUNT>
12

> <PUBCHEM_CONFORMER_ID>
02F85A0400000001

> <PUBCHEM_MMFF94_ENERGY>
138.0738

> <PUBCHEM_FEATURE_SELFOVERLAP>
71.303

> <PUBCHEM_SHAPE_FINGERPRINT>
10032420 55 18131072598128772001
11479125 193 17822578329729772932
12107698 1 17022897905088216124
12355185 1 17704072906510714699
12788726 201 17917440803943739681
131258 38 18127106633469505570
14114206 34 18130235976953470708
14932702 115 18200322129172491616
15264996 19 18127713684641993651
15406563 228 18335143038285007928
15968369 153 17774994752255676491
16112460 7 18334294258390283430
161222 619 16009889396581118540
17138139 8 17918279731284136321
19319366 153 18272363148758004899
20764821 26 18271791463067847043
24941158 1 16299204866223822554
3383291 50 17060347313853268861
3493558 16 18335154089399884811
392239 28 18341900663094558363
469060 322 17687191885515131794
50150288 127 17842591623013299040

> <PUBCHEM_SHAPE_MULTIPOLES>
842.16
12.38
4.75
3.86
7.27
4.25
0.1
-4.46
-4.43
-2.59
0.41
-0.55
-2.74
-3.34

> <PUBCHEM_SHAPE_SELFOVERLAP>
1866.635

> <PUBCHEM_SHAPE_VOLUME>
452.3

> <PUBCHEM_COORDINATE_TYPE>
2
5
10

$$$$
