49830438
  -OEChem-10052115183D

 61 65  0     1  0  0  0  0  0999 V2000
    3.2627    0.3005   -1.6632 O   0  0  0  0  0  0  0  0  0  0  0  0
   -4.4753    0.8125   -2.1901 O   0  0  0  0  0  0  0  0  0  0  0  0
    1.2318   -2.7860    0.2220 N   0  0  0  0  0  0  0  0  0  0  0  0
    6.5774   -1.2319   -1.5857 N   0  0  0  0  0  0  0  0  0  0  0  0
    2.5520    3.6519   -0.3795 N   0  0  0  0  0  0  0  0  0  0  0  0
   -4.9594    2.0046    0.9807 N   0  0  0  0  0  0  0  0  0  0  0  0
    4.7861   -2.0042   -0.0761 C   0  0  0  0  0  0  0  0  0  0  0  0
    5.1254   -1.2278   -1.3824 C   0  0  1  0  0  0  0  0  0  0  0  0
    3.3492   -2.1205    0.2458 C   0  0  0  0  0  0  0  0  0  0  0  0
    2.6356   -1.3685    1.2205 C   0  0  0  0  0  0  0  0  0  0  0  0
    4.6473    0.2289   -1.3493 C   0  0  0  0  0  0  0  0  0  0  0  0
    1.3097   -1.8053    1.1853 C   0  0  0  0  0  0  0  0  0  0  0  0
    2.4592   -2.9834   -0.3512 C   0  0  0  0  0  0  0  0  0  0  0  0
    2.9917   -0.3549    2.1322 C   0  0  0  0  0  0  0  0  0  0  0  0
    0.3180   -1.2771    2.0195 C   0  0  0  0  0  0  0  0  0  0  0  0
    2.0103    0.1829    2.9729 C   0  0  0  0  0  0  0  0  0  0  0  0
    0.6947   -0.2727    2.9157 C   0  0  0  0  0  0  0  0  0  0  0  0
    2.5641    1.3564   -1.1382 C   0  0  0  0  0  0  0  0  0  0  0  0
    0.5290    2.3301   -0.3042 C   0  0  0  0  0  0  0  0  0  0  0  0
   -0.8750    2.2415    0.0211 C   0  0  0  0  0  0  0  0  0  0  0  0
    1.2120    1.2412   -0.8348 C   0  0  0  0  0  0  0  0  0  0  0  0
   -3.0639    1.3057   -0.3915 C   0  0  0  0  0  0  0  0  0  0  0  0
   -1.7073    1.3894   -0.7050 C   0  0  0  0  0  0  0  0  0  0  0  0
    3.1824    2.5721   -0.8939 C   0  0  0  0  0  0  0  0  0  0  0  0
   -1.3995    3.0100    1.0603 C   0  0  0  0  0  0  0  0  0  0  0  0
   -3.5882    2.0741    0.6479 C   0  0  0  0  0  0  0  0  0  0  0  0
    1.2383    3.5024   -0.0975 C   0  0  0  0  0  0  0  0  0  0  0  0
   -2.7560    2.9263    1.3739 C   0  0  0  0  0  0  0  0  0  0  0  0
   -3.9071    0.4054   -1.1678 C   0  0  0  0  0  0  0  0  0  0  0  0
   -4.1230   -1.0192   -0.7790 C   0  0  0  0  0  0  0  0  0  0  0  0
   -4.9400   -1.8395   -1.5570 C   0  0  0  0  0  0  0  0  0  0  0  0
   -3.5073   -1.5303    0.3635 C   0  0  0  0  0  0  0  0  0  0  0  0
   -5.1412   -3.1709   -1.1925 C   0  0  0  0  0  0  0  0  0  0  0  0
   -3.7083   -2.8617    0.7279 C   0  0  0  0  0  0  0  0  0  0  0  0
   -4.5255   -3.6819   -0.0502 C   0  0  0  0  0  0  0  0  0  0  0  0
    5.3188   -1.5413    0.7655 H   0  0  0  0  0  0  0  0  0  0  0  0
    5.2013   -3.0191   -0.1564 H   0  0  0  0  0  0  0  0  0  0  0  0
    4.6517   -1.7437   -2.2273 H   0  0  0  0  0  0  0  0  0  0  0  0
    4.8763    0.6565   -0.3638 H   0  0  0  0  0  0  0  0  0  0  0  0
    5.1776    0.8146   -2.1114 H   0  0  0  0  0  0  0  0  0  0  0  0
    2.5874   -3.7194   -1.1327 H   0  0  0  0  0  0  0  0  0  0  0  0
    0.3892   -3.2859   -0.0262 H   0  0  0  0  0  0  0  0  0  0  0  0
    4.0114    0.0149    2.1896 H   0  0  0  0  0  0  0  0  0  0  0  0
    6.9114   -2.1930   -1.6442 H   0  0  0  0  0  0  0  0  0  0  0  0
    6.8004   -0.7973   -2.4803 H   0  0  0  0  0  0  0  0  0  0  0  0
   -0.7044   -1.6347    1.9797 H   0  0  0  0  0  0  0  0  0  0  0  0
    2.2787    0.9664    3.6765 H   0  0  0  0  0  0  0  0  0  0  0  0
   -0.0520    0.1597    3.5769 H   0  0  0  0  0  0  0  0  0  0  0  0
    0.7293    0.2843   -1.0113 H   0  0  0  0  0  0  0  0  0  0  0  0
   -1.3350    0.7987   -1.5387 H   0  0  0  0  0  0  0  0  0  0  0  0
    4.2263    2.7560   -1.1244 H   0  0  0  0  0  0  0  0  0  0  0  0
   -0.7832    3.6655    1.6696 H   0  0  0  0  0  0  0  0  0  0  0  0
    0.7815    4.4093    0.2859 H   0  0  0  0  0  0  0  0  0  0  0  0
   -3.1509    3.5259    2.1902 H   0  0  0  0  0  0  0  0  0  0  0  0
   -5.5850    1.3965    0.4705 H   0  0  0  0  0  0  0  0  0  0  0  0
   -5.3208    2.5679    1.7392 H   0  0  0  0  0  0  0  0  0  0  0  0
   -5.4314   -1.4667   -2.4515 H   0  0  0  0  0  0  0  0  0  0  0  0
   -2.8693   -0.9220    0.9965 H   0  0  0  0  0  0  0  0  0  0  0  0
   -5.7773   -3.8098   -1.7981 H   0  0  0  0  0  0  0  0  0  0  0  0
   -3.2292   -3.2596    1.6177 H   0  0  0  0  0  0  0  0  0  0  0  0
   -4.6821   -4.7185    0.2337 H   0  0  0  0  0  0  0  0  0  0  0  0
  1 11  1  0  0  0  0
  1 18  1  0  0  0  0
  2 29  2  0  0  0  0
  3 12  1  0  0  0  0
  3 13  1  0  0  0  0
  3 42  1  0  0  0  0
  4  8  1  0  0  0  0
  4 44  1  0  0  0  0
  4 45  1  0  0  0  0
  5 24  1  0  0  0  0
  5 27  2  0  0  0  0
  6 26  1  0  0  0  0
  6 55  1  0  0  0  0
  6 56  1  0  0  0  0
  7  8  1  0  0  0  0
  7  9  1  0  0  0  0
  7 36  1  0  0  0  0
  7 37  1  0  0  0  0
  8 11  1  0  0  0  0
  8 38  1  0  0  0  0
  9 10  1  0  0  0  0
  9 13  2  0  0  0  0
 10 12  1  0  0  0  0
 10 14  2  0  0  0  0
 11 39  1  0  0  0  0
 11 40  1  0  0  0  0
 12 15  2  0  0  0  0
 13 41  1  0  0  0  0
 14 16  1  0  0  0  0
 14 43  1  0  0  0  0
 15 17  1  0  0  0  0
 15 46  1  0  0  0  0
 16 17  2  0  0  0  0
 16 47  1  0  0  0  0
 17 48  1  0  0  0  0
 18 21  1  0  0  0  0
 18 24  2  0  0  0  0
 19 20  1  0  0  0  0
 19 21  2  0  0  0  0
 19 27  1  0  0  0  0
 20 23  2  0  0  0  0
 20 25  1  0  0  0  0
 21 49  1  0  0  0  0
 22 23  1  0  0  0  0
 22 26  2  0  0  0  0
 22 29  1  0  0  0  0
 23 50  1  0  0  0  0
 24 51  1  0  0  0  0
 25 28  2  0  0  0  0
 25 52  1  0  0  0  0
 26 28  1  0  0  0  0
 27 53  1  0  0  0  0
 28 54  1  0  0  0  0
 29 30  1  0  0  0  0
 30 31  2  0  0  0  0
 30 32  1  0  0  0  0
 31 33  1  0  0  0  0
 31 57  1  0  0  0  0
 32 34  2  0  0  0  0
 32 58  1  0  0  0  0
 33 35  2  0  0  0  0
 33 59  1  0  0  0  0
 34 35  1  0  0  0  0
 34 60  1  0  0  0  0
 35 61  1  0  0  0  0
M  END
> <PUBCHEM_COMPOUND_CID>
49830438

> <PUBCHEM_CONFORMER_RMSD>
1.6

> <PUBCHEM_CONFORMER_DIVERSEORDER>
1
26
70
47
63
98
94
65
125
61
99
128
18
83
48
29
95
19
43
40
8
23
77
78
87
24
109
64
45
115
73
50
75
104
126
36
102
105
74
117
37
46
86
54
107
100
119
32
79
31
93
123
58
67
62
53
81
127
122
55
108
113
57
60
33
110
80
7
121
116
71
118
28
66
20
3
42
82
69
35
68
88
84
92
103
39
111
112
17
21
76
11
96
101
97
106
91
120
44
89
34
114
25
56
90
22
30
52
12
2
124
41
5
27
4
16
15
38
85
14
59
72
10
13
51
6
49
9

> <PUBCHEM_MMFF94_PARTIAL_CHARGES>
53
1 -0.36
11 0.28
12 -0.15
13 -0.3
14 -0.15
15 -0.15
16 -0.15
17 -0.15
18 0.08
2 -0.57
21 -0.15
22 0.09
23 -0.15
24 0.16
25 -0.15
26 0.1
27 0.16
28 -0.15
29 0.4
3 0.03
30 0.09
31 -0.15
32 -0.15
33 -0.15
34 -0.15
35 -0.15
4 -0.99
41 0.15
42 0.27
43 0.15
44 0.36
45 0.36
46 0.15
47 0.15
48 0.15
49 0.15
5 -0.62
50 0.15
51 0.15
52 0.15
53 0.15
54 0.15
55 0.4
56 0.4
57 0.15
58 0.15
59 0.15
6 -0.9
60 0.15
61 0.15
7 0.18
8 0.27
9 -0.18

> <PUBCHEM_EFFECTIVE_ROTOR_COUNT>
8

> <PUBCHEM_PHARMACOPHORE_FEATURES>
14
1 1 acceptor
1 2 acceptor
1 3 cation
1 3 donor
1 4 cation
1 4 donor
1 5 acceptor
1 6 cation
1 6 donor
5 3 9 10 12 13 rings
6 10 12 14 15 16 17 rings
6 20 22 23 25 26 28 rings
6 30 31 32 33 34 35 rings
6 5 18 19 21 24 27 rings

> <PUBCHEM_HEAVY_ATOM_COUNT>
35

> <PUBCHEM_ATOM_DEF_STEREO_COUNT>
0

> <PUBCHEM_ATOM_UDEF_STEREO_COUNT>
1

> <PUBCHEM_BOND_DEF_STEREO_COUNT>
0

> <PUBCHEM_BOND_UDEF_STEREO_COUNT>
0

> <PUBCHEM_ISOTOPIC_ATOM_COUNT>
0

> <PUBCHEM_COMPONENT_COUNT>
1

> <PUBCHEM_CACTVS_TAUTO_COUNT>
5

> <PUBCHEM_CONFORMER_ID>
02F85A2600000001

> <PUBCHEM_MMFF94_ENERGY>
112.91

> <PUBCHEM_FEATURE_SELFOVERLAP>
71.14

> <PUBCHEM_SHAPE_FINGERPRINT>
11315621 136 18335982064198577972
11607047 403 17982712354734971168
12156800 1 16977559843875554920
12553582 1 18263640675949643565
12597179 24 16902706230244355937
13383661 66 17469057999785344163
144659 178 17897144863373760994
14950920 106 13973671880347569287
15001296 14 18408882966591549085
15721738 202 18334862757568071451
17138139 8 18261119582187022854
17909252 39 18340492273897096634
20764821 26 18408890637482306491
20775438 99 17908407405621439686
20775530 9 18261387893073432623
22393880 68 18113609118983803733
23559900 14 18339911684676468997
238 59 17749112201040254208
3737641 26 18119536676880558203
4280585 95 18189877748051080314
444735 86 17976806907562328655
463206 1 18335147440363151396
513532 50 17697589249576727907
5895379 119 18410569570015034322
6287921 2 18341323397128650088
6823239 73 18339066164149783995

> <PUBCHEM_SHAPE_MULTIPOLES>
688.62
11.81
4.89
2.23
1.78
0.6
-1.26
-7.7
6.17
2.45
0.05
-1.08
-0.17
-1.45

> <PUBCHEM_SHAPE_SELFOVERLAP>
1529.641

> <PUBCHEM_SHAPE_VOLUME>
367.1

> <PUBCHEM_COORDINATE_TYPE>
2
5
10

$$$$
