11406590
  -OEChem-10052115153D

 46 49  0     0  0  0  0  0  0999 V2000
   -5.1640    0.1901   -2.1008 F   0  0  0  0  0  0  0  0  0  0  0  0
   -6.5093   -2.6891    1.4072 F   0  0  0  0  0  0  0  0  0  0  0  0
    7.0534   -1.2998    1.2306 O   0  0  0  0  0  0  0  0  0  0  0  0
   -3.2921    1.3529   -0.4516 O   0  0  0  0  0  0  0  0  0  0  0  0
   -1.6816    2.9839    0.9940 O   0  0  0  0  0  0  0  0  0  0  0  0
    4.1338   -0.6109   -0.8531 N   0  0  0  0  0  0  0  0  0  0  0  0
    2.2292    0.6045   -0.2211 N   0  0  0  0  0  0  0  0  0  0  0  0
    0.2671    1.8475    0.4230 N   0  0  0  0  0  0  0  0  0  0  0  0
    2.0502   -1.3092   -1.6696 N   0  0  0  0  0  0  0  0  0  0  0  0
    5.0033    0.2582   -0.0850 C   0  0  0  0  0  0  0  0  0  0  0  0
    4.9404   -0.1074    1.3994 C   0  0  0  0  0  0  0  0  0  0  0  0
    6.4356    0.1581   -0.6121 C   0  0  0  0  0  0  0  0  0  0  0  0
    5.7125   -1.3864    1.7098 C   0  0  0  0  0  0  0  0  0  0  0  0
    7.1082   -1.1431   -0.1864 C   0  0  0  0  0  0  0  0  0  0  0  0
    2.7350   -0.4307   -0.9187 C   0  0  0  0  0  0  0  0  0  0  0  0
    0.8863    0.7736   -0.2874 C   0  0  0  0  0  0  0  0  0  0  0  0
    0.0800   -0.0743   -1.0332 C   0  0  0  0  0  0  0  0  0  0  0  0
    0.7192   -1.1029   -1.7065 C   0  0  0  0  0  0  0  0  0  0  0  0
   -1.3573    0.1211   -1.0932 C   0  0  0  0  0  0  0  0  0  0  0  0
   -1.1107    2.0717    0.3943 C   0  0  0  0  0  0  0  0  0  0  0  0
   -1.9312    1.1282   -0.4246 C   0  0  0  0  0  0  0  0  0  0  0  0
    1.1389    2.7236    1.1993 C   0  0  0  0  0  0  0  0  0  0  0  0
   -4.0930    0.3474    0.0099 C   0  0  0  0  0  0  0  0  0  0  0  0
   -5.0357   -0.2322   -0.8355 C   0  0  0  0  0  0  0  0  0  0  0  0
   -3.9617   -0.0931    1.3243 C   0  0  0  0  0  0  0  0  0  0  0  0
   -5.8530   -1.2591   -0.3628 C   0  0  0  0  0  0  0  0  0  0  0  0
   -4.7789   -1.1199    1.7968 C   0  0  0  0  0  0  0  0  0  0  0  0
   -5.7245   -1.7029    0.9533 C   0  0  0  0  0  0  0  0  0  0  0  0
    4.6816    1.2992   -0.2178 H   0  0  0  0  0  0  0  0  0  0  0  0
    3.9106   -0.2002    1.7599 H   0  0  0  0  0  0  0  0  0  0  0  0
    5.4046    0.7123    1.9635 H   0  0  0  0  0  0  0  0  0  0  0  0
    7.0107    0.9939   -0.1930 H   0  0  0  0  0  0  0  0  0  0  0  0
    6.4638    0.2558   -1.7034 H   0  0  0  0  0  0  0  0  0  0  0  0
    5.2244   -2.2656    1.2732 H   0  0  0  0  0  0  0  0  0  0  0  0
    5.7554   -1.5393    2.7929 H   0  0  0  0  0  0  0  0  0  0  0  0
    8.1635   -1.1242   -0.4770 H   0  0  0  0  0  0  0  0  0  0  0  0
    6.6528   -2.0152   -0.6693 H   0  0  0  0  0  0  0  0  0  0  0  0
    4.5112   -1.4137   -1.3427 H   0  0  0  0  0  0  0  0  0  0  0  0
    0.1679   -1.8144   -2.3141 H   0  0  0  0  0  0  0  0  0  0  0  0
   -1.9420   -0.5639   -1.6983 H   0  0  0  0  0  0  0  0  0  0  0  0
    1.8632    3.1984    0.5299 H   0  0  0  0  0  0  0  0  0  0  0  0
    1.6605    2.1335    1.9595 H   0  0  0  0  0  0  0  0  0  0  0  0
    0.5672    3.5081    1.7025 H   0  0  0  0  0  0  0  0  0  0  0  0
   -3.2372    0.3571    1.9975 H   0  0  0  0  0  0  0  0  0  0  0  0
   -6.5891   -1.7131   -1.0195 H   0  0  0  0  0  0  0  0  0  0  0  0
   -4.6808   -1.4644    2.8221 H   0  0  0  0  0  0  0  0  0  0  0  0
  1 24  1  0  0  0  0
  2 28  1  0  0  0  0
  3 13  1  0  0  0  0
  3 14  1  0  0  0  0
  4 21  1  0  0  0  0
  4 23  1  0  0  0  0
  5 20  2  0  0  0  0
  6 10  1  0  0  0  0
  6 15  1  0  0  0  0
  6 38  1  0  0  0  0
  7 15  1  0  0  0  0
  7 16  2  0  0  0  0
  8 16  1  0  0  0  0
  8 20  1  0  0  0  0
  8 22  1  0  0  0  0
  9 15  2  0  0  0  0
  9 18  1  0  0  0  0
 10 11  1  0  0  0  0
 10 12  1  0  0  0  0
 10 29  1  0  0  0  0
 11 13  1  0  0  0  0
 11 30  1  0  0  0  0
 11 31  1  0  0  0  0
 12 14  1  0  0  0  0
 12 32  1  0  0  0  0
 12 33  1  0  0  0  0
 13 34  1  0  0  0  0
 13 35  1  0  0  0  0
 14 36  1  0  0  0  0
 14 37  1  0  0  0  0
 16 17  1  0  0  0  0
 17 18  2  0  0  0  0
 17 19  1  0  0  0  0
 18 39  1  0  0  0  0
 19 21  2  0  0  0  0
 19 40  1  0  0  0  0
 20 21  1  0  0  0  0
 22 41  1  0  0  0  0
 22 42  1  0  0  0  0
 22 43  1  0  0  0  0
 23 24  2  0  0  0  0
 23 25  1  0  0  0  0
 24 26  1  0  0  0  0
 25 27  2  0  0  0  0
 25 44  1  0  0  0  0
 26 28  2  0  0  0  0
 26 45  1  0  0  0  0
 27 28  1  0  0  0  0
 27 46  1  0  0  0  0
M  END
> <PUBCHEM_COMPOUND_CID>
11406590

> <PUBCHEM_CONFORMER_RMSD>
0.8

> <PUBCHEM_CONFORMER_DIVERSEORDER>
1
89
46
65
56
79
12
103
80
112
74
57
97
63
84
5
93
76
18
96
107
78
67
86
101
81
59
16
108
58
94
99
26
22
85
73
71
104
68
13
90
38
53
61
39
100
31
34
92
30
6
109
8
105
55
70
40
82
98
83
72
88
19
102
10
41
29
111
60
21
24
23
25
32
87
110
54
91
37
7
69
95
42
51
66
50
75
52
43
64
62
44
9
47
33
20
49
28
77
35
27
45
106
15
17
4
14
11
36
48
3
2

> <PUBCHEM_MMFF94_PARTIAL_CHARGES>
32
1 -0.19
10 0.37
13 0.28
14 0.28
15 0.72
16 0.43
17 0.03
18 0.16
19 -0.18
2 -0.19
20 0.62
21 0.09
22 0.3
23 0.08
24 0.19
25 -0.15
26 -0.15
27 -0.15
28 0.19
3 -0.56
38 0.4
39 0.15
4 -0.16
40 0.15
44 0.15
45 0.15
46 0.15
5 -0.57
6 -0.87
7 -0.62
8 -0.48
9 -0.62

> <PUBCHEM_EFFECTIVE_ROTOR_COUNT>
5.2

> <PUBCHEM_PHARMACOPHORE_FEATURES>
9
1 3 acceptor
1 4 acceptor
1 5 acceptor
1 6 donor
4 6 7 9 15 cation
6 23 24 25 26 27 28 rings
6 3 10 11 12 13 14 rings
6 7 9 15 16 17 18 rings
6 8 16 17 19 20 21 rings

> <PUBCHEM_HEAVY_ATOM_COUNT>
28

> <PUBCHEM_ATOM_DEF_STEREO_COUNT>
0

> <PUBCHEM_ATOM_UDEF_STEREO_COUNT>
0

> <PUBCHEM_BOND_DEF_STEREO_COUNT>
0

> <PUBCHEM_BOND_UDEF_STEREO_COUNT>
0

> <PUBCHEM_ISOTOPIC_ATOM_COUNT>
0

> <PUBCHEM_COMPONENT_COUNT>
1

> <PUBCHEM_CACTVS_TAUTO_COUNT>
4

> <PUBCHEM_CONFORMER_ID>
00AE0CFE00000001

> <PUBCHEM_MMFF94_ENERGY>
79.9643

> <PUBCHEM_FEATURE_SELFOVERLAP>
45.708

> <PUBCHEM_SHAPE_FINGERPRINT>
10 15 18201998850440665242
10066227 112 9079105653631326638
105312 117 9007054656357093697
10693767 8 14273720876684571616
11315181 36 18040438793635576837
11445158 3 18338513148793693276
11646440 116 17418093222224080752
11796584 16 17822004272974495059
11963148 33 18411130338495289294
12035758 1 17774998007909289562
12166972 35 18186241732276736740
12236239 1 18260829259767917660
12596602 18 18186519883001137144
13140716 1 17845365733631169157
13167372 99 13254797932734804210
13540713 4 17486223222866984316
13540713 5 17271713181401861437
13782708 43 18186798105927877767
13862211 1 18130499799266286076
14211702 104 18262803956491683578
14251751 18 17894914057232857171
14849402 71 16271073977418092088
15183329 4 13695583364647839890
15188451 53 18040152920216871722
15510800 12 18042140846120548019
15927050 60 17411329224354151756
16994733 274 12391497690926645742
20567600 247 17385439925485917738
20642791 268 16415209970336894241
21033650 10 16805315579692233013
21267235 1 18130793343897657412
21521239 73 15140961798247280227
21637258 2 17603580842082190154
21756936 100 13038896725122906085
21781051 124 18271822224404609206
2215653 11 14056722323221223876
22182313 1 17631458856320584932
22393880 68 12757439426830144665
23559900 14 17677048061899344237
23569914 2 13251674043679997018
23576562 1 8790296920892934434
23845131 108 16552583837922380176
2747138 104 18131073748989434018
2838139 119 11167939138969888722
3009799 131 12685092601067516302
392239 28 16702299061581219290
4015057 19 15213601021057051828
439807 62 17822016454013631627
465052 167 18410856577484407468
469060 322 17917446280417679640
5718773 13 18189899897852125123
57527295 17 18193532529972344717
6328613 192 9223221949745330886
7495541 125 18261677059766988300
77296 10 16806179872507456414

> <PUBCHEM_SHAPE_MULTIPOLES>
524.15
18.19
2.25
1.72
10.24
1.17
0.15
-12.38
5.38
-1.61
0.98
-0.43
-0.6
0.8

> <PUBCHEM_SHAPE_SELFOVERLAP>
1143.191

> <PUBCHEM_SHAPE_VOLUME>
284.7

> <PUBCHEM_COORDINATE_TYPE>
2
5
10

$$$$
