49831047
  -OEChem-10052115173D

 43 46  0     1  0  0  0  0  0999 V2000
    2.1730   -0.6003   -2.4291 O   0  0  0  0  0  0  0  0  0  0  0  0
   -4.2687    2.4255    0.7254 O   0  0  0  0  0  0  0  0  0  0  0  0
    3.0144    0.3814   -0.5003 N   0  0  0  0  0  0  0  0  0  0  0  0
    4.4234    2.0845    2.3956 N   0  0  0  0  0  0  0  0  0  0  0  0
   -0.7395   -0.0305   -0.2439 N   0  0  0  0  0  0  0  0  0  0  0  0
   -1.9702   -1.4583    0.9346 N   0  0  0  0  0  0  0  0  0  0  0  0
    1.0748   -3.5559    0.7139 N   0  0  0  0  0  0  0  0  0  0  0  0
   -3.0001    1.8726    0.9101 N   0  0  0  0  0  0  0  0  0  0  0  0
   -5.1179    1.5332    0.0681 N   0  0  0  0  0  0  0  0  0  0  0  0
   -4.7558   -0.6941   -0.7491 N   0  0  0  0  0  0  0  0  0  0  0  0
    3.7576    1.9294    1.1145 C   0  0  1  0  0  0  0  0  0  0  0  0
    4.7257    1.9440   -0.0694 C   0  0  0  0  0  0  0  0  0  0  0  0
    3.0572    0.5813    0.9491 C   0  0  0  0  0  0  0  0  0  0  0  0
    3.8893    1.3266   -1.1816 C   0  0  0  0  0  0  0  0  0  0  0  0
    2.2219   -0.5120   -1.2038 C   0  0  0  0  0  0  0  0  0  0  0  0
    1.3624   -1.4180   -0.4254 C   0  0  0  0  0  0  0  0  0  0  0  0
    0.0609   -1.1250   -0.0421 C   0  0  0  0  0  0  0  0  0  0  0  0
   -0.7295   -2.0008    0.6951 C   0  0  0  0  0  0  0  0  0  0  0  0
   -1.9422   -0.2774    0.3580 C   0  0  0  0  0  0  0  0  0  0  0  0
   -0.3862    1.1738   -0.9628 C   0  0  0  0  0  0  0  0  0  0  0  0
    1.8019   -2.6652   -0.0051 C   0  0  0  0  0  0  0  0  0  0  0  0
   -0.1935   -3.2332    1.0695 C   0  0  0  0  0  0  0  0  0  0  0  0
   -3.0862    0.6586    0.3695 C   0  0  0  0  0  0  0  0  0  0  0  0
   -1.0062    1.2067   -2.3514 C   0  0  0  0  0  0  0  0  0  0  0  0
   -4.3666    0.4532   -0.1394 C   0  0  0  0  0  0  0  0  0  0  0  0
    3.0244    2.7365    0.9861 H   0  0  0  0  0  0  0  0  0  0  0  0
    5.0837    2.9466   -0.3213 H   0  0  0  0  0  0  0  0  0  0  0  0
    5.5982    1.3097    0.1339 H   0  0  0  0  0  0  0  0  0  0  0  0
    3.6363   -0.2465    1.3750 H   0  0  0  0  0  0  0  0  0  0  0  0
    2.0543    0.5731    1.3848 H   0  0  0  0  0  0  0  0  0  0  0  0
    3.2567    2.0740   -1.6732 H   0  0  0  0  0  0  0  0  0  0  0  0
    4.4904    0.8184   -1.9413 H   0  0  0  0  0  0  0  0  0  0  0  0
    4.8741    2.9972    2.4410 H   0  0  0  0  0  0  0  0  0  0  0  0
    3.7345    2.0624    3.1460 H   0  0  0  0  0  0  0  0  0  0  0  0
   -0.7363    2.0302   -0.3777 H   0  0  0  0  0  0  0  0  0  0  0  0
    0.6888    1.3006   -1.0184 H   0  0  0  0  0  0  0  0  0  0  0  0
    2.8060   -3.0056   -0.2452 H   0  0  0  0  0  0  0  0  0  0  0  0
   -0.7394   -3.9719    1.6428 H   0  0  0  0  0  0  0  0  0  0  0  0
   -0.6714    0.3530   -2.9503 H   0  0  0  0  0  0  0  0  0  0  0  0
   -0.7115    2.1230   -2.8725 H   0  0  0  0  0  0  0  0  0  0  0  0
   -2.0991    1.1797   -2.3149 H   0  0  0  0  0  0  0  0  0  0  0  0
   -4.1384   -1.4895   -0.8811 H   0  0  0  0  0  0  0  0  0  0  0  0
   -5.6969   -0.8160   -1.1100 H   0  0  0  0  0  0  0  0  0  0  0  0
  1 15  2  0  0  0  0
  2  8  1  0  0  0  0
  2  9  1  0  0  0  0
  3 13  1  0  0  0  0
  3 14  1  0  0  0  0
  3 15  1  0  0  0  0
  4 11  1  0  0  0  0
  4 33  1  0  0  0  0
  4 34  1  0  0  0  0
  5 17  1  0  0  0  0
  5 19  1  0  0  0  0
  5 20  1  0  0  0  0
  6 18  1  0  0  0  0
  6 19  2  0  0  0  0
  7 21  1  0  0  0  0
  7 22  2  0  0  0  0
  8 23  2  0  0  0  0
  9 25  2  0  0  0  0
 10 25  1  0  0  0  0
 10 42  1  0  0  0  0
 10 43  1  0  0  0  0
 11 12  1  0  0  0  0
 11 13  1  0  0  0  0
 11 26  1  0  0  0  0
 12 14  1  0  0  0  0
 12 27  1  0  0  0  0
 12 28  1  0  0  0  0
 13 29  1  0  0  0  0
 13 30  1  0  0  0  0
 14 31  1  0  0  0  0
 14 32  1  0  0  0  0
 15 16  1  0  0  0  0
 16 17  1  0  0  0  0
 16 21  2  0  0  0  0
 17 18  2  0  0  0  0
 18 22  1  0  0  0  0
 19 23  1  0  0  0  0
 20 24  1  0  0  0  0
 20 35  1  0  0  0  0
 20 36  1  0  0  0  0
 21 37  1  0  0  0  0
 22 38  1  0  0  0  0
 23 25  1  0  0  0  0
 24 39  1  0  0  0  0
 24 40  1  0  0  0  0
 24 41  1  0  0  0  0
M  END
> <PUBCHEM_COMPOUND_CID>
49831047

> <PUBCHEM_CONFORMER_RMSD>
0.8

> <PUBCHEM_CONFORMER_DIVERSEORDER>
1
31
24
30
7
22
27
25
13
29
19
11
28
16
12
6
18
9
10
8
23
3
21
17
2
15
20
26
5
14
4

> <PUBCHEM_MMFF94_PARTIAL_CHARGES>
29
1 -0.57
10 -0.88
11 0.27
13 0.3
14 0.3
15 0.54
16 0.09
17 -0.15
18 0.23
19 0.19
2 0.24
20 0.26
21 0.16
22 0.16
23 0.29
25 0.37
3 -0.66
33 0.36
34 0.36
37 0.15
38 0.15
4 -0.99
42 0.4
43 0.4
5 0.05
6 -0.57
7 -0.62
8 -0.41
9 -0.41

> <PUBCHEM_EFFECTIVE_ROTOR_COUNT>
5

> <PUBCHEM_PHARMACOPHORE_FEATURES>
12
1 1 acceptor
1 10 donor
1 4 cation
1 4 donor
1 7 acceptor
1 8 acceptor
3 5 6 19 cation
3 9 10 25 cation
5 2 8 9 23 25 rings
5 3 11 12 13 14 rings
5 5 6 17 18 19 rings
6 7 16 17 18 21 22 rings

> <PUBCHEM_HEAVY_ATOM_COUNT>
25

> <PUBCHEM_ATOM_DEF_STEREO_COUNT>
0

> <PUBCHEM_ATOM_UDEF_STEREO_COUNT>
1

> <PUBCHEM_BOND_DEF_STEREO_COUNT>
0

> <PUBCHEM_BOND_UDEF_STEREO_COUNT>
0

> <PUBCHEM_ISOTOPIC_ATOM_COUNT>
0

> <PUBCHEM_COMPONENT_COUNT>
1

> <PUBCHEM_CACTVS_TAUTO_COUNT>
2

> <PUBCHEM_CONFORMER_ID>
02F85C8700000001

> <PUBCHEM_MMFF94_ENERGY>
49.5078

> <PUBCHEM_FEATURE_SELFOVERLAP>
61.011

> <PUBCHEM_SHAPE_FINGERPRINT>
10165383 225 18261973855398277220
10692045 39 18270101449936116842
11370993 70 18411139172820075512
11543360 7 17203611475882015679
11582403 64 18131343129190780158
11725454 13 18131347553086086062
12422481 6 17313933126580653173
12633257 1 18042111211041078444
12788726 201 17392778268006197386
13140716 1 18041851609974234131
13878862 14 17829319195418346949
13965767 371 17967248668013420124
14178342 30 18187656837679214795
14461889 52 18041293110418509641
14787075 74 18129659824265261233
14848178 96 18410580552225518825
17349148 13 17895196644795897567
19752476 56 18059019367228633296
20567600 254 18411688903027715824
21033648 29 18339370763320113384
212916 134 18337383941677083576
21452121 103 18262232201385124946
21475661 188 18201717388054224224
22149856 69 18044122128320200689
22182313 1 18117867527497697891
23227448 37 17631443647640695389
23559900 14 18337685147923514742
23569917 315 18260266377664594258
238 59 16988291957952185196
2748010 2 17970376804296259411
34797466 226 17489591147748289829
350125 39 18116155467855011006
427121 178 18408609149699412232
4340502 62 18411139138913699395
474 4 18334863800880899749
495365 180 18338235959909090411
5104073 3 18189346671677496225
56616090 13 17774999111188714752
58807428 26 18040147422827544898
633830 44 18270405984101323429
6442390 28 18410016558710803254
67856867 119 18339633426598588643
6913067 236 17895460493258409437
7064713 232 18261392295019486484
7364860 26 18192717730693437390
7808743 9 18191317180945382380
84936 182 18269280070961334938
90316 7 17313936541190456004
9981440 41 18336262435337584763

> <PUBCHEM_SHAPE_MULTIPOLES>
462.9
9.08
3.34
1.68
2.99
2.58
-0.42
-8.39
1.9
-0.61
1.2
-1.41
-0.7
0.72

> <PUBCHEM_SHAPE_SELFOVERLAP>
1013.6

> <PUBCHEM_SHAPE_VOLUME>
252.4

> <PUBCHEM_COORDINATE_TYPE>
2
5
10

$$$$
