44328672
  -OEChem-10062121583D

 71 74  0     1  0  0  0  0  0999 V2000
   -3.6541   -3.6912   -0.1358 O   0  0  0  0  0  0  0  0  0  0  0  0
   -4.6199    0.5009   -1.7081 O   0  0  0  0  0  0  0  0  0  0  0  0
    4.5065    1.2330   -0.8843 O   0  0  0  0  0  0  0  0  0  0  0  0
   -1.9279   -1.9660    1.3571 N   0  0  0  0  0  0  0  0  0  0  0  0
    2.9485   -1.1213    2.5976 N   0  0  0  0  0  0  0  0  0  0  0  0
   -2.3990    1.9922   -0.5279 N   0  0  0  0  0  0  0  0  0  0  0  0
   -4.3969   -1.7521   -1.1836 N   0  0  0  0  0  0  0  0  0  0  0  0
    3.0572    1.2425    0.9268 N   0  0  0  0  0  0  0  0  0  0  0  0
    1.9914    3.0929   -1.3398 N   0  0  0  0  0  0  0  0  0  0  0  0
    0.6701   -2.9556    2.2608 C   0  0  0  0  0  0  0  0  0  0  0  0
   -0.6678   -3.5168    2.7442 C   0  0  0  0  0  0  0  0  0  0  0  0
    1.7667   -3.1469    3.3107 C   0  0  0  0  0  0  0  0  0  0  0  0
   -1.7521   -3.3613    1.6825 C   0  0  0  0  0  0  0  0  0  0  0  0
    3.0925   -2.5522    2.8387 C   0  0  0  0  0  0  0  0  0  0  0  0
   -2.8028   -1.5171    0.4272 C   0  0  0  0  0  0  0  0  0  0  0  0
   -3.0856   -0.2867   -0.0304 C   0  0  0  0  0  0  0  0  0  0  0  0
   -2.4821    0.9792    0.3895 C   0  0  0  0  0  0  0  0  0  0  0  0
    4.2030   -0.5433    2.1368 C   0  0  0  0  0  0  0  0  0  0  0  0
    4.0491    0.9559    1.9271 C   0  0  0  0  0  0  0  0  0  0  0  0
   -1.8080    3.0988    0.0391 C   0  0  0  0  0  0  0  0  0  0  0  0
   -1.5075    2.7715    1.3631 C   0  0  0  0  0  0  0  0  0  0  0  0
   -1.9384    1.4311    1.5698 C   0  0  0  0  0  0  0  0  0  0  0  0
   -3.6515   -2.4840   -0.3073 C   0  0  0  0  0  0  0  0  0  0  0  0
   -4.1219   -0.4200   -1.0834 C   0  0  0  0  0  0  0  0  0  0  0  0
    2.1530    1.6391   -1.2933 C   0  0  1  0  0  0  0  0  0  0  0  0
    2.3606    1.0910   -2.7127 C   0  0  0  0  0  0  0  0  0  0  0  0
    3.3738    1.3597   -0.4219 C   0  0  0  0  0  0  0  0  0  0  0  0
   -1.5196    4.3519   -0.5132 C   0  0  0  0  0  0  0  0  0  0  0  0
   -0.8890    3.7406    2.1777 C   0  0  0  0  0  0  0  0  0  0  0  0
    2.0474   -0.3827   -2.8239 C   0  0  0  0  0  0  0  0  0  0  0  0
   -0.9055    5.2969    0.3136 C   0  0  0  0  0  0  0  0  0  0  0  0
   -0.5942    4.9981    1.6387 C   0  0  0  0  0  0  0  0  0  0  0  0
    3.0504   -1.3271   -2.6053 C   0  0  0  0  0  0  0  0  0  0  0  0
    0.7556   -0.7991   -3.1451 C   0  0  0  0  0  0  0  0  0  0  0  0
    2.7617   -2.6879   -2.7080 C   0  0  0  0  0  0  0  0  0  0  0  0
    0.4666   -2.1598   -3.2478 C   0  0  0  0  0  0  0  0  0  0  0  0
    1.4697   -3.1043   -3.0293 C   0  0  0  0  0  0  0  0  0  0  0  0
    0.5686   -1.8913    2.0280 H   0  0  0  0  0  0  0  0  0  0  0  0
    0.9648   -3.4596    1.3317 H   0  0  0  0  0  0  0  0  0  0  0  0
   -0.9712   -2.9989    3.6627 H   0  0  0  0  0  0  0  0  0  0  0  0
   -0.5581   -4.5792    2.9923 H   0  0  0  0  0  0  0  0  0  0  0  0
    1.9048   -4.2163    3.5099 H   0  0  0  0  0  0  0  0  0  0  0  0
    1.4642   -2.6810    4.2570 H   0  0  0  0  0  0  0  0  0  0  0  0
   -2.6786   -3.7835    2.0883 H   0  0  0  0  0  0  0  0  0  0  0  0
   -1.4478   -3.9336    0.7982 H   0  0  0  0  0  0  0  0  0  0  0  0
    3.4109   -3.0632    1.9221 H   0  0  0  0  0  0  0  0  0  0  0  0
    3.8538   -2.7356    3.6063 H   0  0  0  0  0  0  0  0  0  0  0  0
   -1.4147   -1.2655    1.8792 H   0  0  0  0  0  0  0  0  0  0  0  0
    2.6456   -0.6565    3.4531 H   0  0  0  0  0  0  0  0  0  0  0  0
    4.5100   -1.0158    1.1957 H   0  0  0  0  0  0  0  0  0  0  0  0
    4.9959   -0.7147    2.8745 H   0  0  0  0  0  0  0  0  0  0  0  0
    5.0082    1.3880    1.6216 H   0  0  0  0  0  0  0  0  0  0  0  0
    3.7377    1.4534    2.8524 H   0  0  0  0  0  0  0  0  0  0  0  0
   -2.7175    1.9445   -1.4863 H   0  0  0  0  0  0  0  0  0  0  0  0
   -1.8606    0.8706    2.4917 H   0  0  0  0  0  0  0  0  0  0  0  0
    1.2581    1.1978   -0.8380 H   0  0  0  0  0  0  0  0  0  0  0  0
   -5.0749   -2.1478   -1.8250 H   0  0  0  0  0  0  0  0  0  0  0  0
    1.6992    1.6180   -3.4154 H   0  0  0  0  0  0  0  0  0  0  0  0
    3.3748    1.2821   -3.0874 H   0  0  0  0  0  0  0  0  0  0  0  0
    2.0933    1.3554    1.2271 H   0  0  0  0  0  0  0  0  0  0  0  0
   -1.7605    4.5849   -1.5448 H   0  0  0  0  0  0  0  0  0  0  0  0
   -0.6402    3.5206    3.2120 H   0  0  0  0  0  0  0  0  0  0  0  0
   -0.6668    6.2798   -0.0848 H   0  0  0  0  0  0  0  0  0  0  0  0
   -0.1163    5.7492    2.2621 H   0  0  0  0  0  0  0  0  0  0  0  0
    1.7820    3.4420   -0.4048 H   0  0  0  0  0  0  0  0  0  0  0  0
    1.1833    3.3286   -1.9147 H   0  0  0  0  0  0  0  0  0  0  0  0
    4.0629   -1.0195   -2.3603 H   0  0  0  0  0  0  0  0  0  0  0  0
   -0.0360   -0.0736   -3.3133 H   0  0  0  0  0  0  0  0  0  0  0  0
    3.5427   -3.4232   -2.5384 H   0  0  0  0  0  0  0  0  0  0  0  0
   -0.5400   -2.4840   -3.4953 H   0  0  0  0  0  0  0  0  0  0  0  0
    1.2444   -4.1638   -3.1084 H   0  0  0  0  0  0  0  0  0  0  0  0
  1 23  2  0  0  0  0
  2 24  2  0  0  0  0
  3 27  2  0  0  0  0
  4 13  1  0  0  0  0
  4 15  1  0  0  0  0
  4 48  1  0  0  0  0
  5 14  1  0  0  0  0
  5 18  1  0  0  0  0
  5 49  1  0  0  0  0
  6 17  1  0  0  0  0
  6 20  1  0  0  0  0
  6 54  1  0  0  0  0
  7 23  1  0  0  0  0
  7 24  1  0  0  0  0
  7 57  1  0  0  0  0
  8 19  1  0  0  0  0
  8 27  1  0  0  0  0
  8 60  1  0  0  0  0
  9 25  1  0  0  0  0
  9 65  1  0  0  0  0
  9 66  1  0  0  0  0
 10 11  1  0  0  0  0
 10 12  1  0  0  0  0
 10 38  1  0  0  0  0
 10 39  1  0  0  0  0
 11 13  1  0  0  0  0
 11 40  1  0  0  0  0
 11 41  1  0  0  0  0
 12 14  1  0  0  0  0
 12 42  1  0  0  0  0
 12 43  1  0  0  0  0
 13 44  1  0  0  0  0
 13 45  1  0  0  0  0
 14 46  1  0  0  0  0
 14 47  1  0  0  0  0
 15 16  2  0  0  0  0
 15 23  1  0  0  0  0
 16 17  1  0  0  0  0
 16 24  1  0  0  0  0
 17 22  2  0  0  0  0
 18 19  1  0  0  0  0
 18 50  1  0  0  0  0
 18 51  1  0  0  0  0
 19 52  1  0  0  0  0
 19 53  1  0  0  0  0
 20 21  1  0  0  0  0
 20 28  2  0  0  0  0
 21 22  1  0  0  0  0
 21 29  2  0  0  0  0
 22 55  1  0  0  0  0
 25 26  1  0  0  0  0
 25 27  1  0  0  0  0
 25 56  1  0  0  0  0
 26 30  1  0  0  0  0
 26 58  1  0  0  0  0
 26 59  1  0  0  0  0
 28 31  1  0  0  0  0
 28 61  1  0  0  0  0
 29 32  1  0  0  0  0
 29 62  1  0  0  0  0
 30 33  2  0  0  0  0
 30 34  1  0  0  0  0
 31 32  2  0  0  0  0
 31 63  1  0  0  0  0
 32 64  1  0  0  0  0
 33 35  1  0  0  0  0
 33 67  1  0  0  0  0
 34 36  2  0  0  0  0
 34 68  1  0  0  0  0
 35 37  2  0  0  0  0
 35 69  1  0  0  0  0
 36 37  1  0  0  0  0
 36 70  1  0  0  0  0
 37 71  1  0  0  0  0
M  END
> <PUBCHEM_COMPOUND_CID>
44328672

> <PUBCHEM_CONFORMER_RMSD>
1.6

> <PUBCHEM_CONFORMER_DIVERSEORDER>
1
61
20
58
118
180
23
181
177
163
139
167
104
108
191
32
43
152
101
52
30
65
133
35
100
136
68
110
89
93
53
115
144
57
37
174
44
11
141
156
124
96
41
159
25
4
116
143
19
64
176
187
106
184
2
170
56
142
147
13
59
14
42
31
171
128
49
182
74
193
151
72
122
70
38
197
33
148
10
34
103
165
66
192
94
158
27
194
190
113
123
82
119
39
126
90
112
54
83
73
78
109
75
105
71
17
189
5
95
102
15
146
185
107
24
18
98
29
157
62
161
22
132
7
40
48
164
6
120
173
79
50
97
77
16
166
168
8
51
196
121
111
117
87
129
186
36
9
178
47
69
3
127
67
76
92
84
28
85
150
149
80
86
99
134
131
179
160
12
130
81
91
63
137
138
183
154
145
135
55
140
114
175
26
172
88
155
169
188
60
21
162
45
125
195
153
46

> <PUBCHEM_MMFF94_PARTIAL_CHARGES>
50
1 -0.57
13 0.37
14 0.27
15 0.11
16 0.06
17 -0.2
18 0.27
19 0.3
2 -0.57
20 -0.15
22 -0.15
23 0.62
24 0.62
25 0.33
26 0.14
27 0.57
28 -0.15
29 -0.15
3 -0.57
30 -0.14
31 -0.15
32 -0.15
33 -0.15
34 -0.15
35 -0.15
36 -0.15
37 -0.15
4 -0.87
48 0.4
49 0.36
5 -0.9
54 0.27
55 0.15
57 0.37
6 0.03
60 0.37
61 0.15
62 0.15
63 0.15
64 0.15
65 0.36
66 0.36
67 0.15
68 0.15
69 0.15
7 -0.49
70 0.15
71 0.15
8 -0.73
9 -0.99

> <PUBCHEM_EFFECTIVE_ROTOR_COUNT>
15.2

> <PUBCHEM_PHARMACOPHORE_FEATURES>
17
1 1 acceptor
1 2 acceptor
1 3 acceptor
1 4 cation
1 4 donor
1 5 cation
1 5 donor
1 6 cation
1 6 donor
1 7 donor
1 8 donor
1 9 cation
1 9 donor
5 6 17 20 21 22 rings
5 7 15 16 23 24 rings
6 20 21 28 29 31 32 rings
6 30 33 34 35 36 37 rings

> <PUBCHEM_HEAVY_ATOM_COUNT>
37

> <PUBCHEM_ATOM_DEF_STEREO_COUNT>
0

> <PUBCHEM_ATOM_UDEF_STEREO_COUNT>
1

> <PUBCHEM_BOND_DEF_STEREO_COUNT>
0

> <PUBCHEM_BOND_UDEF_STEREO_COUNT>
0

> <PUBCHEM_ISOTOPIC_ATOM_COUNT>
0

> <PUBCHEM_COMPONENT_COUNT>
1

> <PUBCHEM_CACTVS_TAUTO_COUNT>
16

> <PUBCHEM_CONFORMER_ID>
02A466E000000001

> <PUBCHEM_MMFF94_ENERGY>
56.1792

> <PUBCHEM_FEATURE_SELFOVERLAP>
86.37

> <PUBCHEM_SHAPE_FINGERPRINT>
10032420 55 17323523359082168092
12156800 1 17908139876624675654
14068700 675 18116410657563461098
14400156 260 18053103922854922041
15274700 242 16231163711549678982
161222 10 17834677097904127682
20764821 26 17980519854791046974
25265897 201 17338707167953539611
3493558 16 17611994150634268901
463206 1 18262223517277790233
550186 7 18129079174836236978

> <PUBCHEM_SHAPE_MULTIPOLES>
713.95
7.65
6.95
4.33
0.57
1.31
-0.33
1.2
-0.09
-5.35
2.21
5.82
-2.57
-1.69

> <PUBCHEM_SHAPE_SELFOVERLAP>
1521.656

> <PUBCHEM_SHAPE_VOLUME>
396.7

> <PUBCHEM_COORDINATE_TYPE>
2
5
10

$$$$
