24905187
  -OEChem-10052115163D

 57 61  0     0  0  0  0  0  0999 V2000
    5.8411   -0.3028    0.3687 O   0  0  0  0  0  0  0  0  0  0  0  0
    4.5245   -0.2609   -1.5416 O   0  0  0  0  0  0  0  0  0  0  0  0
   -3.9780   -0.3997   -0.0917 N   0  0  0  0  0  0  0  0  0  0  0  0
   -2.7179   -0.8668   -0.0150 N   0  0  0  0  0  0  0  0  0  0  0  0
   -5.1671    1.7058   -0.2165 N   0  0  0  0  0  0  0  0  0  0  0  0
   -3.6391    3.6071   -0.2009 N   0  0  0  0  0  0  0  0  0  0  0  0
    3.5900   -0.1344    0.5488 N   0  0  0  0  0  0  0  0  0  0  0  0
   -1.2687    3.3559   -0.0775 N   0  0  0  0  0  0  0  0  0  0  0  0
   -5.1341   -1.3741   -0.1182 C   0  0  0  0  0  0  0  0  0  0  0  0
   -5.2329   -2.2839    1.1242 C   0  0  0  0  0  0  0  0  0  0  0  0
   -5.0763   -2.3254   -1.3269 C   0  0  0  0  0  0  0  0  0  0  0  0
   -5.0709   -3.7093    0.6081 C   0  0  0  0  0  0  0  0  0  0  0  0
   -5.6222   -3.6459   -0.8054 C   0  0  0  0  0  0  0  0  0  0  0  0
   -4.0531    0.9607   -0.1382 C   0  0  0  0  0  0  0  0  0  0  0  0
   -2.7477    1.4173   -0.0882 C   0  0  0  0  0  0  0  0  0  0  0  0
   -1.9734    0.2445   -0.0133 C   0  0  0  0  0  0  0  0  0  0  0  0
   -0.5424    0.1449    0.0605 C   0  0  0  0  0  0  0  0  0  0  0  0
   -2.5578    2.7948   -0.1222 C   0  0  0  0  0  0  0  0  0  0  0  0
    0.0872    0.1354    1.3068 C   0  0  0  0  0  0  0  0  0  0  0  0
    1.4927    0.0379    1.3777 C   0  0  0  0  0  0  0  0  0  0  0  0
    0.2068    0.0593   -1.1061 C   0  0  0  0  0  0  0  0  0  0  0  0
    2.2393   -0.0481    0.1946 C   0  0  0  0  0  0  0  0  0  0  0  0
   -4.8591    3.0204   -0.2425 C   0  0  0  0  0  0  0  0  0  0  0  0
    1.6013   -0.0381   -1.0607 C   0  0  0  0  0  0  0  0  0  0  0  0
    2.4060    0.0033    2.4573 C   0  0  0  0  0  0  0  0  0  0  0  0
    7.0261   -0.4123   -0.4257 C   0  0  0  0  0  0  0  0  0  0  0  0
    3.6688   -0.1008    1.9303 C   0  0  0  0  0  0  0  0  0  0  0  0
    4.6801   -0.2378   -0.3318 C   0  0  0  0  0  0  0  0  0  0  0  0
    7.1180    0.8134   -1.3334 C   0  0  0  0  0  0  0  0  0  0  0  0
    8.2168   -0.4644    0.5291 C   0  0  0  0  0  0  0  0  0  0  0  0
    6.9420   -1.6960   -1.2503 C   0  0  0  0  0  0  0  0  0  0  0  0
   -6.0344   -0.7506   -0.1777 H   0  0  0  0  0  0  0  0  0  0  0  0
   -6.2281   -2.1715    1.5716 H   0  0  0  0  0  0  0  0  0  0  0  0
   -4.4972   -2.0485    1.8997 H   0  0  0  0  0  0  0  0  0  0  0  0
   -4.0503   -2.4660   -1.6868 H   0  0  0  0  0  0  0  0  0  0  0  0
   -5.6669   -1.9463   -2.1673 H   0  0  0  0  0  0  0  0  0  0  0  0
   -5.5982   -4.4379    1.2303 H   0  0  0  0  0  0  0  0  0  0  0  0
   -4.0090   -3.9817    0.5876 H   0  0  0  0  0  0  0  0  0  0  0  0
   -5.3049   -4.4962   -1.4154 H   0  0  0  0  0  0  0  0  0  0  0  0
   -6.7182   -3.6239   -0.7872 H   0  0  0  0  0  0  0  0  0  0  0  0
   -0.4933    0.2026    2.2242 H   0  0  0  0  0  0  0  0  0  0  0  0
   -0.2808    0.0671   -2.0792 H   0  0  0  0  0  0  0  0  0  0  0  0
   -5.7026    3.6995   -0.3054 H   0  0  0  0  0  0  0  0  0  0  0  0
    2.1581   -0.1033   -1.9889 H   0  0  0  0  0  0  0  0  0  0  0  0
    2.1703    0.0495    3.5117 H   0  0  0  0  0  0  0  0  0  0  0  0
   -0.4445    2.7762   -0.0182 H   0  0  0  0  0  0  0  0  0  0  0  0
   -1.1755    4.3624   -0.1044 H   0  0  0  0  0  0  0  0  0  0  0  0
    4.6218   -0.1541    2.4397 H   0  0  0  0  0  0  0  0  0  0  0  0
    6.4362    0.7955   -2.1874 H   0  0  0  0  0  0  0  0  0  0  0  0
    6.9096    1.7325   -0.7735 H   0  0  0  0  0  0  0  0  0  0  0  0
    8.1249    0.9003   -1.7589 H   0  0  0  0  0  0  0  0  0  0  0  0
    8.1282   -1.3154    1.2143 H   0  0  0  0  0  0  0  0  0  0  0  0
    8.2518    0.4344    1.1554 H   0  0  0  0  0  0  0  0  0  0  0  0
    9.1670   -0.5497   -0.0080 H   0  0  0  0  0  0  0  0  0  0  0  0
    6.6231   -2.5404   -0.6281 H   0  0  0  0  0  0  0  0  0  0  0  0
    6.2532   -1.6445   -2.0973 H   0  0  0  0  0  0  0  0  0  0  0  0
    7.9217   -1.9431   -1.6762 H   0  0  0  0  0  0  0  0  0  0  0  0
  1 26  1  0  0  0  0
  1 28  1  0  0  0  0
  2 28  2  0  0  0  0
  3  4  1  0  0  0  0
  3  9  1  0  0  0  0
  3 14  1  0  0  0  0
  4 16  2  0  0  0  0
  5 14  2  0  0  0  0
  5 23  1  0  0  0  0
  6 18  1  0  0  0  0
  6 23  2  0  0  0  0
  7 22  1  0  0  0  0
  7 27  1  0  0  0  0
  7 28  1  0  0  0  0
  8 18  1  0  0  0  0
  8 46  1  0  0  0  0
  8 47  1  0  0  0  0
  9 10  1  0  0  0  0
  9 11  1  0  0  0  0
  9 32  1  0  0  0  0
 10 12  1  0  0  0  0
 10 33  1  0  0  0  0
 10 34  1  0  0  0  0
 11 13  1  0  0  0  0
 11 35  1  0  0  0  0
 11 36  1  0  0  0  0
 12 13  1  0  0  0  0
 12 37  1  0  0  0  0
 12 38  1  0  0  0  0
 13 39  1  0  0  0  0
 13 40  1  0  0  0  0
 14 15  1  0  0  0  0
 15 16  1  0  0  0  0
 15 18  2  0  0  0  0
 16 17  1  0  0  0  0
 17 19  2  0  0  0  0
 17 21  1  0  0  0  0
 19 20  1  0  0  0  0
 19 41  1  0  0  0  0
 20 22  2  0  0  0  0
 20 25  1  0  0  0  0
 21 24  2  0  0  0  0
 21 42  1  0  0  0  0
 22 24  1  0  0  0  0
 23 43  1  0  0  0  0
 24 44  1  0  0  0  0
 25 27  2  0  0  0  0
 25 45  1  0  0  0  0
 26 29  1  0  0  0  0
 26 30  1  0  0  0  0
 26 31  1  0  0  0  0
 27 48  1  0  0  0  0
 29 49  1  0  0  0  0
 29 50  1  0  0  0  0
 29 51  1  0  0  0  0
 30 52  1  0  0  0  0
 30 53  1  0  0  0  0
 30 54  1  0  0  0  0
 31 55  1  0  0  0  0
 31 56  1  0  0  0  0
 31 57  1  0  0  0  0
M  END
> <PUBCHEM_COMPOUND_CID>
24905187

> <PUBCHEM_CONFORMER_RMSD>
0.8

> <PUBCHEM_CONFORMER_DIVERSEORDER>
1
17
15
4
57
47
6
35
13
36
28
39
26
23
30
32
34
59
27
37
11
50
40
14
3
41
16
54
5
48
18
53
31
8
33
51
25
21
10
42
38
9
24
7
49
55
46
60
44
22
43
20
12
29
2
58
45
19
52
56

> <PUBCHEM_MMFF94_PARTIAL_CHARGES>
30
1 -0.43
14 0.11
16 0.23
17 0.05
18 0.41
19 -0.15
2 -0.57
21 -0.15
22 -0.15
23 0.47
24 -0.15
25 -0.15
26 0.28
27 -0.3
28 0.73
3 0.31
4 -0.71
41 0.15
42 0.15
43 0.15
44 0.15
45 0.15
46 0.4
47 0.4
48 0.15
5 -0.57
6 -0.62
7 0.29
8 -0.9
9 0.26

> <PUBCHEM_EFFECTIVE_ROTOR_COUNT>
6

> <PUBCHEM_PHARMACOPHORE_FEATURES>
12
1 2 acceptor
1 4 acceptor
1 8 cation
1 8 donor
3 3 5 14 cation
3 5 6 23 cation
4 26 29 30 31 hydrophobe
5 3 4 14 15 16 rings
5 7 20 22 25 27 rings
5 9 10 11 12 13 rings
6 17 19 20 21 22 24 rings
6 5 6 14 15 18 23 rings

> <PUBCHEM_HEAVY_ATOM_COUNT>
31

> <PUBCHEM_ATOM_DEF_STEREO_COUNT>
0

> <PUBCHEM_ATOM_UDEF_STEREO_COUNT>
0

> <PUBCHEM_BOND_DEF_STEREO_COUNT>
0

> <PUBCHEM_BOND_UDEF_STEREO_COUNT>
0

> <PUBCHEM_ISOTOPIC_ATOM_COUNT>
0

> <PUBCHEM_COMPONENT_COUNT>
1

> <PUBCHEM_CACTVS_TAUTO_COUNT>
5

> <PUBCHEM_CONFORMER_ID>
017C05E300000001

> <PUBCHEM_MMFF94_ENERGY>
81.699

> <PUBCHEM_FEATURE_SELFOVERLAP>
61.265

> <PUBCHEM_SHAPE_FINGERPRINT>
10319926 262 18270665507310338938
10411042 1 18266177430596985551
10595046 47 18261112972311553134
10670039 82 18334008393603470850
11056379 131 18410008832549765547
11135926 11 15791729677086937474
11315181 36 17967254212647212413
11315621 246 18335699438386948821
11545043 162 18202561782744855643
11796584 16 18198624337544335654
12082328 90 18410854352912992062
12236239 1 17822010878818747536
12788726 201 18187078499100819003
13540713 4 18058147570836427817
1361 4 18412263905277210910
13631057 29 18335136518588183515
13673619 4 17917150605893751651
13690498 29 18412542145615189015
13782708 43 17988921193427780406
13911987 19 15213012760871891051
14117953 113 18270954761486289751
14294032 229 18262796239121359093
14856354 85 18409453600415588407
15021287 119 14477243777409788611
15183329 4 18266465313522249580
15250474 111 18115290190600876763
15324884 4 17630013101588260161
15328829 1 17676213446584598789
15352257 5 18131074848465034966
15461852 350 18409456886787879510
15467298 65 18114168710284603474
1577012 14 17749389239911236360
15876981 60 18261399948756885629
16989713 51 18059851826475136655
16992828 155 17169825570915625157
17686467 74 18262516017858055184
18608769 82 18343865536700279182
18927931 339 18412821417801437951
19427546 20 18333447625963012477
20505436 4 17751642053311259049
21033648 29 17631995482187067592
21315759 40 17603580812692736962
21792961 116 17632582596580966214
21795232 338 18341057388983371649
21796203 349 17901418845859901091
2303208 19 17846495954712929018
23081809 10 17676483922286987162
23522609 53 17750247919812034812
23557571 272 18272370850330484541
23559900 14 18272084933719182388
24771293 8 17458631146984371388
249057 25 17895203220601967892
25223398 141 18272087214478581886
255183 451 18050564351309790447
3178227 256 16773802528225357766
335352 9 18408597068895490309
397830 11 17988069115071136034
4073 2 18340492166480735750
4339292 15 18058999683346439383
437795 160 18337096935710917522
46194498 28 18202282550516949104
497634 4 17967246499112867415
49967989 163 18041569138507270179
504579 68 18114172038687765991
5265222 85 18272372035862875270
54039377 194 17895764023267510923
57527293 21 17558553754040188415
57634706 229 17842854235148638001
58083652 198 15338825465997470930
6673363 416 18267035010949382780
6700243 42 17842875249621491621
999808 66 17561370590718724150

> <PUBCHEM_SHAPE_MULTIPOLES>
596.34
19.91
3.52
1.49
29.36
0.48
0.55
-9.96
-4.35
-10.57
-0.55
1.65
-0.41
0.37

> <PUBCHEM_SHAPE_SELFOVERLAP>
1319.727

> <PUBCHEM_SHAPE_VOLUME>
322.5

> <PUBCHEM_COORDINATE_TYPE>
2
5
10

$$$$
