135947973
  -OEChem-10052115163D

 38 40  0     0  0  0  0  0  0999 V2000
    5.5282    0.3836   -0.3100 O   0  0  0  0  0  0  0  0  0  0  0  0
   -2.0329    0.9876   -0.0809 N   0  0  0  0  0  0  0  0  0  0  0  0
   -0.7510    1.3969   -0.1111 N   0  0  0  0  0  0  0  0  0  0  0  0
   -3.3206   -1.0621   -0.0268 N   0  0  0  0  0  0  0  0  0  0  0  0
   -1.8815   -3.0317   -0.0256 N   0  0  0  0  0  0  0  0  0  0  0  0
    0.5006   -2.8887   -0.0723 N   0  0  0  0  0  0  0  0  0  0  0  0
   -3.0933    1.9673   -0.0789 C   0  0  0  0  0  0  0  0  0  0  0  0
   -0.8876   -0.8841   -0.0755 C   0  0  0  0  0  0  0  0  0  0  0  0
   -2.1717   -0.3684   -0.0586 C   0  0  0  0  0  0  0  0  0  0  0  0
   -0.0585    0.2526   -0.1077 C   0  0  0  0  0  0  0  0  0  0  0  0
    1.3819    0.2870   -0.1394 C   0  0  0  0  0  0  0  0  0  0  0  0
   -3.0779    2.8162   -1.3525 C   0  0  0  0  0  0  0  0  0  0  0  0
   -3.0386    2.8538    1.1677 C   0  0  0  0  0  0  0  0  0  0  0  0
   -0.7622   -2.2693   -0.0579 C   0  0  0  0  0  0  0  0  0  0  0  0
    2.1278    0.3185    1.0390 C   0  0  0  0  0  0  0  0  0  0  0  0
    2.0295    0.2879   -1.3749 C   0  0  0  0  0  0  0  0  0  0  0  0
    3.5211    0.3512    0.9817 C   0  0  0  0  0  0  0  0  0  0  0  0
    1.4694    0.3183    2.3815 C   0  0  0  0  0  0  0  0  0  0  0  0
    3.4228    0.3208   -1.4321 C   0  0  0  0  0  0  0  0  0  0  0  0
   -3.0741   -2.3899   -0.0121 C   0  0  0  0  0  0  0  0  0  0  0  0
    4.1686    0.3524   -0.2538 C   0  0  0  0  0  0  0  0  0  0  0  0
   -4.0435    1.4203   -0.0559 H   0  0  0  0  0  0  0  0  0  0  0  0
   -3.1252    2.1816   -2.2444 H   0  0  0  0  0  0  0  0  0  0  0  0
   -3.9374    3.4945   -1.3752 H   0  0  0  0  0  0  0  0  0  0  0  0
   -2.1686    3.4233   -1.4242 H   0  0  0  0  0  0  0  0  0  0  0  0
   -3.0584    2.2460    2.0791 H   0  0  0  0  0  0  0  0  0  0  0  0
   -3.8968    3.5335    1.1967 H   0  0  0  0  0  0  0  0  0  0  0  0
   -2.1272    3.4614    1.1932 H   0  0  0  0  0  0  0  0  0  0  0  0
    1.4640    0.2628   -2.3036 H   0  0  0  0  0  0  0  0  0  0  0  0
    4.1073    0.3754    1.8973 H   0  0  0  0  0  0  0  0  0  0  0  0
    0.8086    1.1848    2.4896 H   0  0  0  0  0  0  0  0  0  0  0  0
    0.8930   -0.6009    2.5287 H   0  0  0  0  0  0  0  0  0  0  0  0
    2.2024    0.3721    3.1941 H   0  0  0  0  0  0  0  0  0  0  0  0
    3.9215    0.3211   -2.3975 H   0  0  0  0  0  0  0  0  0  0  0  0
   -3.9494   -3.0301    0.0139 H   0  0  0  0  0  0  0  0  0  0  0  0
    1.3518   -2.3469   -0.0939 H   0  0  0  0  0  0  0  0  0  0  0  0
    0.5468   -3.8988   -0.0578 H   0  0  0  0  0  0  0  0  0  0  0  0
    5.8813    0.4025    0.5961 H   0  0  0  0  0  0  0  0  0  0  0  0
  1 21  1  0  0  0  0
  1 38  1  0  0  0  0
  2  3  1  0  0  0  0
  2  7  1  0  0  0  0
  2  9  1  0  0  0  0
  3 10  2  0  0  0  0
  4  9  2  0  0  0  0
  4 20  1  0  0  0  0
  5 14  1  0  0  0  0
  5 20  2  0  0  0  0
  6 14  1  0  0  0  0
  6 36  1  0  0  0  0
  6 37  1  0  0  0  0
  7 12  1  0  0  0  0
  7 13  1  0  0  0  0
  7 22  1  0  0  0  0
  8  9  1  0  0  0  0
  8 10  1  0  0  0  0
  8 14  2  0  0  0  0
 10 11  1  0  0  0  0
 11 15  2  0  0  0  0
 11 16  1  0  0  0  0
 12 23  1  0  0  0  0
 12 24  1  0  0  0  0
 12 25  1  0  0  0  0
 13 26  1  0  0  0  0
 13 27  1  0  0  0  0
 13 28  1  0  0  0  0
 15 17  1  0  0  0  0
 15 18  1  0  0  0  0
 16 19  2  0  0  0  0
 16 29  1  0  0  0  0
 17 21  2  0  0  0  0
 17 30  1  0  0  0  0
 18 31  1  0  0  0  0
 18 32  1  0  0  0  0
 18 33  1  0  0  0  0
 19 21  1  0  0  0  0
 19 34  1  0  0  0  0
 20 35  1  0  0  0  0
M  END
> <PUBCHEM_COMPOUND_CID>
135947973

> <PUBCHEM_CONFORMER_RMSD>
0.6

> <PUBCHEM_CONFORMER_DIVERSEORDER>
2
5
4
6
3
1

> <PUBCHEM_MMFF94_PARTIAL_CHARGES>
25
1 -0.53
10 0.23
11 0.05
14 0.41
15 -0.14
16 -0.15
17 -0.15
18 0.14
19 -0.15
2 0.31
20 0.47
21 0.08
29 0.15
3 -0.71
30 0.15
34 0.15
35 0.15
36 0.4
37 0.4
38 0.45
4 -0.57
5 -0.62
6 -0.9
7 0.26
9 0.11

> <PUBCHEM_EFFECTIVE_ROTOR_COUNT>
2

> <PUBCHEM_PHARMACOPHORE_FEATURES>
10
1 1 donor
1 3 acceptor
1 6 cation
1 6 donor
3 2 4 9 cation
3 4 5 20 cation
3 7 12 13 hydrophobe
5 2 3 8 9 10 rings
6 11 15 16 17 19 21 rings
6 4 5 8 9 14 20 rings

> <PUBCHEM_HEAVY_ATOM_COUNT>
21

> <PUBCHEM_ATOM_DEF_STEREO_COUNT>
0

> <PUBCHEM_ATOM_UDEF_STEREO_COUNT>
0

> <PUBCHEM_BOND_DEF_STEREO_COUNT>
0

> <PUBCHEM_BOND_UDEF_STEREO_COUNT>
0

> <PUBCHEM_ISOTOPIC_ATOM_COUNT>
0

> <PUBCHEM_COMPONENT_COUNT>
1

> <PUBCHEM_CACTVS_TAUTO_COUNT>
-1

> <PUBCHEM_CONFORMER_ID>
081A66C500000002

> <PUBCHEM_MMFF94_ENERGY>
50.8337

> <PUBCHEM_FEATURE_SELFOVERLAP>
51.025

> <PUBCHEM_SHAPE_FINGERPRINT>
10165383 225 18269006284229980089
10319926 262 18269815632947670200
11725454 13 16841021102352723504
11796584 16 18270403785706263502
12236239 1 17676202507165518142
12500047 106 18411978036178768828
12553582 1 18119242007332024779
12716301 132 18342444950560120690
12788726 201 18192168193795683471
13140716 1 18122632914319249819
13464514 151 17701263520751812648
13878862 14 16968578487677742145
13965767 371 17897159113869286188
15042514 8 18265060317534341235
16752209 62 18263627585126331975
16945 1 18410571833831999127
19049666 15 17989212516542525802
20510252 161 18343020042539178841
20600515 1 17760340568369776851
20645477 70 14563071638389895152
22112679 90 17967243213447197732
22907989 373 18261381295750452517
23175994 123 17060071375516663584
2334 1 18338234843729218447
23402539 116 18340763853179350423
23419403 2 17345462876880128337
23493267 7 18272088271225230760
23526113 38 17560521694785230284
23557571 272 18272093842056639936
23559900 14 18201162045262720558
23598291 2 17604132741211379210
2748010 2 18193566567002875263
283562 15 18411417354058062395
3286 77 16700902793615448987
350125 39 18266467490675244187
458136 41 17980209591149704481
559249 180 18335698292179761338
57527295 17 17131267931195164316
59755656 520 17988092062986803401
6049 1 17988356095758407920
633830 44 17771348573881899941
77492 1 17603862334323159412
81228 2 18339081613637413699
84936 182 17623842431974715873
90525 40 18187364332967804238
9862522 239 17895469203157089461

> <PUBCHEM_SHAPE_MULTIPOLES>
401.4
7.5
3.1
1.36
6.46
1.15
-0.45
-2.98
0.88
-4.83
0.14
0.8
-0.65
0.06

> <PUBCHEM_SHAPE_SELFOVERLAP>
880.195

> <PUBCHEM_SHAPE_VOLUME>
218.8

> <PUBCHEM_COORDINATE_TYPE>
2
5
10

$$$$
