24766030
  -OEChem-10062122013D

 52 56  0     0  0  0  0  0  0999 V2000
   -0.1028    3.9934   -0.5718 S   0  0  0  0  0  0  0  0  0  0  0  0
    4.8874    2.7873    0.5392 O   0  0  0  0  0  0  0  0  0  0  0  0
    5.1451    0.5318    0.0941 N   0  0  0  0  0  0  0  0  0  0  0  0
   -2.7344   -0.1037    0.6976 N   0  0  0  0  0  0  0  0  0  0  0  0
   -0.5847   -4.8024   -1.2674 N   0  0  0  0  0  0  0  0  0  0  0  0
   -2.7637    3.9328   -0.6203 N   0  0  0  0  0  0  0  0  0  0  0  0
   -6.2343    0.7438    0.3355 N   0  0  0  0  0  0  0  0  0  0  0  0
    7.0097   -0.9063    0.1382 C   0  0  0  0  0  0  0  0  0  0  0  0
    5.8741   -1.6064   -0.5954 C   0  0  0  0  0  0  0  0  0  0  0  0
    6.6013    0.5567    0.0712 C   0  0  0  0  0  0  0  0  0  0  0  0
    4.6464   -0.8194   -0.1579 C   0  0  0  0  0  0  0  0  0  0  0  0
    4.4060    1.6740    0.3312 C   0  0  0  0  0  0  0  0  0  0  0  0
    2.9375    1.5224    0.3348 C   0  0  0  0  0  0  0  0  0  0  0  0
   -1.7708   -2.3222    0.9906 C   0  0  0  0  0  0  0  0  0  0  0  0
   -1.2321   -3.4914    0.4178 C   0  0  0  0  0  0  0  0  0  0  0  0
   -2.1923   -1.2832    0.1530 C   0  0  0  0  0  0  0  0  0  0  0  0
   -1.1365   -3.5759   -0.9730 C   0  0  0  0  0  0  0  0  0  0  0  0
   -1.5270    1.9341    0.0628 C   0  0  0  0  0  0  0  0  0  0  0  0
   -2.7372    1.2379    0.2587 C   0  0  0  0  0  0  0  0  0  0  0  0
    2.1894    2.5651   -0.0474 C   0  0  0  0  0  0  0  0  0  0  0  0
    0.7162    2.5729   -0.0877 C   0  0  0  0  0  0  0  0  0  0  0  0
   -2.0846   -1.3952   -1.2318 C   0  0  0  0  0  0  0  0  0  0  0  0
   -0.1561    1.5528    0.2224 C   0  0  0  0  0  0  0  0  0  0  0  0
   -1.5539   -2.5455   -1.8228 C   0  0  0  0  0  0  0  0  0  0  0  0
   -1.6255    3.2525   -0.3693 C   0  0  0  0  0  0  0  0  0  0  0  0
   -0.7185   -4.7086    0.9463 C   0  0  0  0  0  0  0  0  0  0  0  0
   -1.9008   -2.1742    2.4756 C   0  0  0  0  0  0  0  0  0  0  0  0
   -3.9371    1.8977    0.0129 C   0  0  0  0  0  0  0  0  0  0  0  0
   -0.3284   -5.4940   -0.1139 C   0  0  0  0  0  0  0  0  0  0  0  0
   -3.8871    3.2127   -0.4144 C   0  0  0  0  0  0  0  0  0  0  0  0
   -5.2053    1.2607    0.1910 C   0  0  0  0  0  0  0  0  0  0  0  0
    7.0390   -1.2418    1.1818 H   0  0  0  0  0  0  0  0  0  0  0  0
    7.9890   -1.0920   -0.3109 H   0  0  0  0  0  0  0  0  0  0  0  0
    6.0165   -1.5072   -1.6783 H   0  0  0  0  0  0  0  0  0  0  0  0
    5.7997   -2.6706   -0.3556 H   0  0  0  0  0  0  0  0  0  0  0  0
    6.9109    1.0177   -0.8733 H   0  0  0  0  0  0  0  0  0  0  0  0
    6.9961    1.1513    0.9005 H   0  0  0  0  0  0  0  0  0  0  0  0
    4.2380   -1.2067    0.7820 H   0  0  0  0  0  0  0  0  0  0  0  0
    3.8584   -0.8109   -0.9165 H   0  0  0  0  0  0  0  0  0  0  0  0
    2.5080    0.5767    0.6405 H   0  0  0  0  0  0  0  0  0  0  0  0
   -3.2914   -0.2476    1.5345 H   0  0  0  0  0  0  0  0  0  0  0  0
    2.6750    3.4890   -0.3563 H   0  0  0  0  0  0  0  0  0  0  0  0
   -2.4175   -0.5919   -1.8855 H   0  0  0  0  0  0  0  0  0  0  0  0
    0.1611    0.5719    0.5541 H   0  0  0  0  0  0  0  0  0  0  0  0
   -1.4717   -2.6325   -2.9010 H   0  0  0  0  0  0  0  0  0  0  0  0
   -0.6388   -4.9900    1.9873 H   0  0  0  0  0  0  0  0  0  0  0  0
   -0.3961   -5.1421   -2.2003 H   0  0  0  0  0  0  0  0  0  0  0  0
   -1.4389   -3.0057    3.0161 H   0  0  0  0  0  0  0  0  0  0  0  0
   -2.9566   -2.1431    2.7642 H   0  0  0  0  0  0  0  0  0  0  0  0
   -1.4051   -1.2592    2.8174 H   0  0  0  0  0  0  0  0  0  0  0  0
    0.1078   -6.4822   -0.1501 H   0  0  0  0  0  0  0  0  0  0  0  0
   -4.8016    3.7660   -0.6175 H   0  0  0  0  0  0  0  0  0  0  0  0
  1 21  1  0  0  0  0
  1 25  1  0  0  0  0
  2 12  2  0  0  0  0
  3 10  1  0  0  0  0
  3 11  1  0  0  0  0
  3 12  1  0  0  0  0
  4 16  1  0  0  0  0
  4 19  1  0  0  0  0
  4 41  1  0  0  0  0
  5 17  1  0  0  0  0
  5 29  1  0  0  0  0
  5 47  1  0  0  0  0
  6 25  2  0  0  0  0
  6 30  1  0  0  0  0
  7 31  3  0  0  0  0
  8  9  1  0  0  0  0
  8 10  1  0  0  0  0
  8 32  1  0  0  0  0
  8 33  1  0  0  0  0
  9 11  1  0  0  0  0
  9 34  1  0  0  0  0
  9 35  1  0  0  0  0
 10 36  1  0  0  0  0
 10 37  1  0  0  0  0
 11 38  1  0  0  0  0
 11 39  1  0  0  0  0
 12 13  1  0  0  0  0
 13 20  2  0  0  0  0
 13 40  1  0  0  0  0
 14 15  1  0  0  0  0
 14 16  2  0  0  0  0
 14 27  1  0  0  0  0
 15 17  2  0  0  0  0
 15 26  1  0  0  0  0
 16 22  1  0  0  0  0
 17 24  1  0  0  0  0
 18 19  2  0  0  0  0
 18 23  1  0  0  0  0
 18 25  1  0  0  0  0
 19 28  1  0  0  0  0
 20 21  1  0  0  0  0
 20 42  1  0  0  0  0
 21 23  2  0  0  0  0
 22 24  2  0  0  0  0
 22 43  1  0  0  0  0
 23 44  1  0  0  0  0
 24 45  1  0  0  0  0
 26 29  2  0  0  0  0
 26 46  1  0  0  0  0
 27 48  1  0  0  0  0
 27 49  1  0  0  0  0
 27 50  1  0  0  0  0
 28 30  2  0  0  0  0
 28 31  1  0  0  0  0
 29 51  1  0  0  0  0
 30 52  1  0  0  0  0
M  END
> <PUBCHEM_COMPOUND_CID>
24766030

> <PUBCHEM_CONFORMER_RMSD>
0.8

> <PUBCHEM_CONFORMER_DIVERSEORDER>
2
46
69
40
45
77
50
37
11
5
49
104
23
84
78
42
52
35
74
26
19
80
21
81
14
16
90
95
68
47
41
1
101
54
29
39
92
76
58
100
38
55
59
17
4
94
48
18
60
61
71
66
56
64
73
25
65
75
15
63
102
7
20
93
44
91
70
30
12
53
27
87
24
36
43
13
99
79
57
3
97
67
103
83
51
10
98
86
88
72
32
31
28
85
22
89
34
8
62
9
33
6
96
82

> <PUBCHEM_MMFF94_PARTIAL_CHARGES>
37
1 -0.08
10 0.3
11 0.3
12 0.62
13 -0.14
14 -0.14
16 0.1
17 -0.15
19 0.1
2 -0.57
20 -0.11
21 -0.01
22 -0.15
23 -0.15
24 -0.15
25 0.3
26 -0.15
27 0.14
28 0.07
29 -0.3
3 -0.66
30 0.16
31 0.48
4 -0.6
40 0.15
41 0.4
42 0.15
43 0.15
44 0.15
45 0.15
46 0.15
47 0.27
5 0.03
51 0.15
52 0.15
6 -0.57
7 -0.56

> <PUBCHEM_EFFECTIVE_ROTOR_COUNT>
6

> <PUBCHEM_PHARMACOPHORE_FEATURES>
12
1 2 acceptor
1 4 cation
1 4 donor
1 5 cation
1 5 donor
1 6 acceptor
1 7 acceptor
5 1 18 21 23 25 rings
5 3 8 9 10 11 rings
5 5 15 17 26 29 rings
6 14 15 16 17 22 24 rings
6 6 18 19 25 28 30 rings

> <PUBCHEM_HEAVY_ATOM_COUNT>
31

> <PUBCHEM_ATOM_DEF_STEREO_COUNT>
0

> <PUBCHEM_ATOM_UDEF_STEREO_COUNT>
0

> <PUBCHEM_BOND_DEF_STEREO_COUNT>
1

> <PUBCHEM_BOND_UDEF_STEREO_COUNT>
0

> <PUBCHEM_ISOTOPIC_ATOM_COUNT>
0

> <PUBCHEM_COMPONENT_COUNT>
1

> <PUBCHEM_CACTVS_TAUTO_COUNT>
4

> <PUBCHEM_CONFORMER_ID>
0179E64E00000002

> <PUBCHEM_MMFF94_ENERGY>
85.7485

> <PUBCHEM_FEATURE_SELFOVERLAP>
61.066

> <PUBCHEM_SHAPE_FINGERPRINT>
10254770 206 18264469721345720362
10462674 125 15404109218289311862
10462674 296 17692532630372196510
10483366 6 18269258210459292855
10928967 22 17331136386536439958
10940486 97 18261399987786208988
11014199 57 17905606954015998390
11285246 1 17835194126246419893
11297010 23 18046890603551705813
11524674 6 17917425397938520036
12107183 9 17474407132845712451
13402501 40 18341615863327564924
14040221 310 18193287510710346660
14444916 359 18268446641263992568
14659021 117 18194946655869292576
14844126 61 18336543940521094704
14866123 147 18340484560325639519
15320467 1 18410573951398712030
15361156 5 18261964063110452580
15400415 2 18338514128421106612
15439362 3 17471003684364137349
15927050 60 18196367018955995189
15961568 22 16969693396261607826
16628084 112 18336535049939246423
16719943 64 18337670815575462466
17627616 140 17976817588803108582
19315092 285 16050966201801788266
19319366 153 17603866663814017378
19958102 18 18337098042615442252
20028762 73 18270124660297787319
21133410 171 17258155078526119602
21133410 230 17828525459438697283
21133665 82 18266742386062393582
229767 44 18411987978637688496
23559900 14 18411131446987111856
3298306 158 18050285873338738780
3383291 50 18411415120353269843
3882209 13 17548661503533315434
4017518 198 18341892948789820198
4073 2 18339639070845401424
463206 1 18338799022127851352
5080951 261 17969477404512316720
5085150 59 18193542394800105730
5265222 85 18410017602657433908
5309563 4 17330555861434483206
56633871 153 17979084004359113675
613672 6 17547266253131175962
6138700 20 18409449168262494129
70251023 43 17329141889533910955
9981440 41 18263657168792833011

> <PUBCHEM_SHAPE_MULTIPOLES>
611.04
12.47
7.62
1.2
23
7.53
-0.18
-5.63
-0.74
-4.47
1.07
-0.77
1.24
0.86

> <PUBCHEM_SHAPE_SELFOVERLAP>
1341.469

> <PUBCHEM_SHAPE_VOLUME>
334

> <PUBCHEM_COORDINATE_TYPE>
2
5
10

$$$$
