44375765
  -OEChem-10062122013D

 52 56  0     0  0  0  0  0  0999 V2000
    5.2579   -1.1086   -1.1777 S   0  0  0  0  0  0  0  0  0  0  0  0
    0.5534    1.5936   -0.3795 O   0  0  0  0  0  0  0  0  0  0  0  0
   -2.4826    0.7834   -2.2500 O   0  0  0  0  0  0  0  0  0  0  0  0
   -6.4064    0.2226    0.0509 O   0  0  0  0  0  0  0  0  0  0  0  0
    0.3697   -1.3295    0.6446 N   0  0  0  0  0  0  0  0  0  0  0  0
   -4.6374    0.7246   -1.3832 N   0  0  0  0  0  0  0  0  0  0  0  0
    7.8492   -0.6623   -1.3522 N   0  0  0  0  0  0  0  0  0  0  0  0
    6.8569   -0.1586    0.7307 N   0  0  0  0  0  0  0  0  0  0  0  0
   -0.6056   -0.4082    0.3717 C   0  0  0  0  0  0  0  0  0  0  0  0
   -1.7625   -1.0913    0.0748 C   0  0  0  0  0  0  0  0  0  0  0  0
   -0.1363   -2.6047    0.5292 C   0  0  0  0  0  0  0  0  0  0  0  0
   -1.4804   -2.4828    0.1706 C   0  0  0  0  0  0  0  0  0  0  0  0
    1.7394   -1.0219    1.0067 C   0  0  0  0  0  0  0  0  0  0  0  0
   -0.3715    0.9929    0.4137 C   0  0  0  0  0  0  0  0  0  0  0  0
    2.6977   -1.2312   -0.1696 C   0  0  0  0  0  0  0  0  0  0  0  0
   -3.0447   -0.4758   -0.2742 C   0  0  0  0  0  0  0  0  0  0  0  0
    0.4868   -3.8442    0.7131 C   0  0  0  0  0  0  0  0  0  0  0  0
   -2.2421   -3.6538   -0.0140 C   0  0  0  0  0  0  0  0  0  0  0  0
   -0.9998    1.9172    1.2158 C   0  0  0  0  0  0  0  0  0  0  0  0
    4.1259   -0.8605    0.2204 C   0  0  0  0  0  0  0  0  0  0  0  0
   -0.4263    3.1770    0.8999 C   0  0  0  0  0  0  0  0  0  0  0  0
   -0.2886   -4.9918    0.5244 C   0  0  0  0  0  0  0  0  0  0  0  0
   -1.6321   -4.9006    0.1665 C   0  0  0  0  0  0  0  0  0  0  0  0
   -3.3094    0.4092   -1.4360 C   0  0  0  0  0  0  0  0  0  0  0  0
   -4.2007   -0.6180    0.3888 C   0  0  0  0  0  0  0  0  0  0  0  0
    0.5223    2.9239   -0.0857 C   0  0  0  0  0  0  0  0  0  0  0  0
   -5.2441    0.1490   -0.3070 C   0  0  0  0  0  0  0  0  0  0  0  0
   -0.6037    4.5013    1.3371 C   0  0  0  0  0  0  0  0  0  0  0  0
    1.3173    3.9051   -0.6755 C   0  0  0  0  0  0  0  0  0  0  0  0
    0.1819    5.5101    0.7627 C   0  0  0  0  0  0  0  0  0  0  0  0
    1.1244    5.2147   -0.2256 C   0  0  0  0  0  0  0  0  0  0  0  0
    6.7914   -0.5807   -0.4915 C   0  0  0  0  0  0  0  0  0  0  0  0
    2.0103   -1.6731    1.8465 H   0  0  0  0  0  0  0  0  0  0  0  0
    1.7984    0.0028    1.3860 H   0  0  0  0  0  0  0  0  0  0  0  0
    2.3690   -0.6158   -1.0174 H   0  0  0  0  0  0  0  0  0  0  0  0
    2.6610   -2.2747   -0.5050 H   0  0  0  0  0  0  0  0  0  0  0  0
    1.5307   -3.9282    0.9952 H   0  0  0  0  0  0  0  0  0  0  0  0
   -3.2902   -3.6031   -0.2948 H   0  0  0  0  0  0  0  0  0  0  0  0
   -1.7750    1.7189    1.9437 H   0  0  0  0  0  0  0  0  0  0  0  0
    4.4546   -1.4805    1.0612 H   0  0  0  0  0  0  0  0  0  0  0  0
    4.1628    0.1899    0.5288 H   0  0  0  0  0  0  0  0  0  0  0  0
    0.1648   -5.9705    0.6602 H   0  0  0  0  0  0  0  0  0  0  0  0
   -2.2145   -5.8072    0.0253 H   0  0  0  0  0  0  0  0  0  0  0  0
   -4.3778   -1.1950    1.2821 H   0  0  0  0  0  0  0  0  0  0  0  0
   -5.1088    1.3221   -2.0527 H   0  0  0  0  0  0  0  0  0  0  0  0
   -1.3323    4.7460    2.1040 H   0  0  0  0  0  0  0  0  0  0  0  0
    2.0464    3.6680   -1.4411 H   0  0  0  0  0  0  0  0  0  0  0  0
    0.0547    6.5382    1.0921 H   0  0  0  0  0  0  0  0  0  0  0  0
    1.7195    6.0179   -0.6532 H   0  0  0  0  0  0  0  0  0  0  0  0
    8.7832   -0.3857   -1.0701 H   0  0  0  0  0  0  0  0  0  0  0  0
    7.7310   -1.0025   -2.3003 H   0  0  0  0  0  0  0  0  0  0  0  0
    7.8273    0.1004    0.9396 H   0  0  0  0  0  0  0  0  0  0  0  0
  1 20  1  0  0  0  0
  1 32  1  0  0  0  0
  2 14  1  0  0  0  0
  2 26  1  0  0  0  0
  3 24  2  0  0  0  0
  4 27  2  0  0  0  0
  5  9  1  0  0  0  0
  5 11  1  0  0  0  0
  5 13  1  0  0  0  0
  6 24  1  0  0  0  0
  6 27  1  0  0  0  0
  6 45  1  0  0  0  0
  7 32  1  0  0  0  0
  7 50  1  0  0  0  0
  7 51  1  0  0  0  0
  8 32  2  0  0  0  0
  8 52  1  0  0  0  0
  9 10  2  0  0  0  0
  9 14  1  0  0  0  0
 10 12  1  0  0  0  0
 10 16  1  0  0  0  0
 11 12  1  0  0  0  0
 11 17  2  0  0  0  0
 12 18  2  0  0  0  0
 13 15  1  0  0  0  0
 13 33  1  0  0  0  0
 13 34  1  0  0  0  0
 14 19  2  0  0  0  0
 15 20  1  0  0  0  0
 15 35  1  0  0  0  0
 15 36  1  0  0  0  0
 16 24  1  0  0  0  0
 16 25  2  0  0  0  0
 17 22  1  0  0  0  0
 17 37  1  0  0  0  0
 18 23  1  0  0  0  0
 18 38  1  0  0  0  0
 19 21  1  0  0  0  0
 19 39  1  0  0  0  0
 20 40  1  0  0  0  0
 20 41  1  0  0  0  0
 21 26  1  0  0  0  0
 21 28  2  0  0  0  0
 22 23  2  0  0  0  0
 22 42  1  0  0  0  0
 23 43  1  0  0  0  0
 25 27  1  0  0  0  0
 25 44  1  0  0  0  0
 26 29  2  0  0  0  0
 28 30  1  0  0  0  0
 28 46  1  0  0  0  0
 29 31  1  0  0  0  0
 29 47  1  0  0  0  0
 30 31  2  0  0  0  0
 30 48  1  0  0  0  0
 31 49  1  0  0  0  0
M  END
> <PUBCHEM_COMPOUND_CID>
44375765

> <PUBCHEM_CONFORMER_RMSD>
1

> <PUBCHEM_CONFORMER_DIVERSEORDER>
1
34
84
41
96
98
99
88
23
9
53
63
93
71
14
38
72
90
33
11
4
30
2
57
22
49
86
62
35
40
78
46
92
43
21
95
39
12
58
19
42
79
6
64
26
77
7
85
13
20
29
15
27
28
69
82
65
67
76
24
37
74
91
89
17
97
60
44
18
73
56
50
83
94
70
45
80
8
68
59
81
5
87
55
36
75
10
16
66
48
31
25
61
3
52
32
51
47
54

> <PUBCHEM_MMFF94_PARTIAL_CHARGES>
43
1 -0.37
10 -0.05
11 -0.15
13 0.26
14 0.14
16 0.06
17 -0.15
18 -0.15
19 -0.15
2 -0.28
20 0.23
22 -0.15
23 -0.15
24 0.62
25 -0.14
26 0.14
27 0.62
28 -0.15
29 -0.15
3 -0.57
30 -0.15
31 -0.15
32 0.64
37 0.15
38 0.15
39 0.15
4 -0.57
42 0.15
43 0.15
44 0.15
45 0.37
46 0.15
47 0.15
48 0.15
49 0.15
5 0.05
50 0.4
51 0.4
52 0.4
6 -0.49
7 -0.85
8 -0.85
9 -0.15

> <PUBCHEM_EFFECTIVE_ROTOR_COUNT>
7.2

> <PUBCHEM_PHARMACOPHORE_FEATURES>
13
1 2 acceptor
1 3 acceptor
1 4 acceptor
1 5 cation
1 6 donor
1 7 donor
1 8 donor
3 7 8 32 cation
5 2 14 19 21 26 rings
5 5 9 10 11 12 rings
5 6 16 24 25 27 rings
6 11 12 17 18 22 23 rings
6 21 26 28 29 30 31 rings

> <PUBCHEM_HEAVY_ATOM_COUNT>
32

> <PUBCHEM_ATOM_DEF_STEREO_COUNT>
0

> <PUBCHEM_ATOM_UDEF_STEREO_COUNT>
0

> <PUBCHEM_BOND_DEF_STEREO_COUNT>
0

> <PUBCHEM_BOND_UDEF_STEREO_COUNT>
0

> <PUBCHEM_ISOTOPIC_ATOM_COUNT>
0

> <PUBCHEM_COMPONENT_COUNT>
1

> <PUBCHEM_CACTVS_TAUTO_COUNT>
3

> <PUBCHEM_CONFORMER_ID>
02A51ED500000001

> <PUBCHEM_MMFF94_ENERGY>
63.0045

> <PUBCHEM_FEATURE_SELFOVERLAP>
66.204

> <PUBCHEM_SHAPE_FINGERPRINT>
10190108 129 18052841164648517633
10190206 1 18265626377507841238
102385 1 17834112322426166019
10871710 139 18196376918154024768
10930396 42 18195780000174224280
1100329 8 18337953505621755763
12058002 1 17486529033107391891
12788726 201 18339357445042980242
13149001 5 18337945817841389887
13617811 41 18337946801647337626
13911987 19 18335132047289981735
140371 6 18341344344195699404
14790565 3 18410297969389936433
14955137 171 18410299112083196611
15198563 99 18268714909301294924
15439362 3 18267578199193778697
15775530 1 17833552670912585039
20600515 1 18200612357419242168
20775438 99 17333893910112251191
21049683 271 18259988176111488437
22122407 14 15503245331282727702
22311459 1 18265330797252999171
23558518 356 17398385330747281435
23559900 14 18269834384321501976
24180151 248 17840601296540494727
266924 87 18123185697483863398
283562 15 18268149751686339672
3178227 256 18336559274229769571
350125 39 18120087545038293203
4394409 98 18260551078514106980
469060 322 18267308625576090729
484989 97 18190738829540249151
5171179 24 18051415372581630394

> <PUBCHEM_SHAPE_MULTIPOLES>
624.86
11.24
7.78
1.23
19.22
5.07
-0.36
-4.68
-4.73
-0.72
2.27
-0.08
0.47
0.49

> <PUBCHEM_SHAPE_SELFOVERLAP>
1383.094

> <PUBCHEM_SHAPE_VOLUME>
340.2

> <PUBCHEM_COORDINATE_TYPE>
2
5
10

$$$$
