11710909
  -OEChem-10062122003D

 45 48  0     0  0  0  0  0  0999 V2000
    9.2704    0.2554    1.3373 Cl  0  0  0  0  0  0  0  0  0  0  0  0
    2.8142   -0.0066   -1.2462 O   0  0  0  0  0  0  0  0  0  0  0  0
   -6.3564    1.2912   -0.0979 N   0  0  0  0  0  0  0  0  0  0  0  0
   -5.4746    2.2561    0.2143 N   0  0  0  0  0  0  0  0  0  0  0  0
   -5.5252   -2.2623   -0.6124 N   0  0  0  0  0  0  0  0  0  0  0  0
   -3.1157    2.1787    0.5695 N   0  0  0  0  0  0  0  0  0  0  0  0
    1.9442   -0.4497    0.8837 N   0  0  0  0  0  0  0  0  0  0  0  0
    4.2206   -0.1640    0.6158 N   0  0  0  0  0  0  0  0  0  0  0  0
   -4.4428    0.2235    0.0068 C   0  0  0  0  0  0  0  0  0  0  0  0
   -3.5910   -0.8834   -0.0609 C   0  0  0  0  0  0  0  0  0  0  0  0
   -5.8001    0.0500   -0.2361 C   0  0  0  0  0  0  0  0  0  0  0  0
   -2.1763   -0.7718    0.1806 C   0  0  0  0  0  0  0  0  0  0  0  0
   -4.3119    1.6026    0.2771 C   0  0  0  0  0  0  0  0  0  0  0  0
   -4.2018   -2.0917   -0.3752 C   0  0  0  0  0  0  0  0  0  0  0  0
   -6.3457   -1.1866   -0.5453 C   0  0  0  0  0  0  0  0  0  0  0  0
   -1.2999   -0.5045   -0.8760 C   0  0  0  0  0  0  0  0  0  0  0  0
   -1.6672   -0.9307    1.4737 C   0  0  0  0  0  0  0  0  0  0  0  0
   -7.7508    1.6353   -0.2544 C   0  0  0  0  0  0  0  0  0  0  0  0
    0.5729   -0.5567    0.6496 C   0  0  0  0  0  0  0  0  0  0  0  0
    0.0711   -0.3974   -0.6421 C   0  0  0  0  0  0  0  0  0  0  0  0
   -0.2962   -0.8234    1.7074 C   0  0  0  0  0  0  0  0  0  0  0  0
    2.9813   -0.1869   -0.0441 C   0  0  0  0  0  0  0  0  0  0  0  0
    5.5006    0.0638    0.0574 C   0  0  0  0  0  0  0  0  0  0  0  0
    6.6135    0.0466    0.8817 C   0  0  0  0  0  0  0  0  0  0  0  0
    5.6131    0.3006   -1.3027 C   0  0  0  0  0  0  0  0  0  0  0  0
    7.8747    0.2726    0.3303 C   0  0  0  0  0  0  0  0  0  0  0  0
    6.8742    0.5266   -1.8542 C   0  0  0  0  0  0  0  0  0  0  0  0
    8.0050    0.5125   -1.0376 C   0  0  0  0  0  0  0  0  0  0  0  0
   -3.6198   -3.0071   -0.4502 H   0  0  0  0  0  0  0  0  0  0  0  0
   -7.3970   -1.3516   -0.7384 H   0  0  0  0  0  0  0  0  0  0  0  0
   -1.6750   -0.3769   -1.8891 H   0  0  0  0  0  0  0  0  0  0  0  0
   -2.3302   -1.1385    2.3105 H   0  0  0  0  0  0  0  0  0  0  0  0
   -8.3082    1.1834    0.5697 H   0  0  0  0  0  0  0  0  0  0  0  0
   -7.8646    2.7224   -0.2323 H   0  0  0  0  0  0  0  0  0  0  0  0
   -8.0996    1.2487   -1.2151 H   0  0  0  0  0  0  0  0  0  0  0  0
    0.6768   -0.1893   -1.5124 H   0  0  0  0  0  0  0  0  0  0  0  0
    0.0810   -0.9497    2.7191 H   0  0  0  0  0  0  0  0  0  0  0  0
   -2.2341    1.6829    0.6172 H   0  0  0  0  0  0  0  0  0  0  0  0
   -3.0461    3.1736    0.7609 H   0  0  0  0  0  0  0  0  0  0  0  0
    2.2336   -0.5782    1.8502 H   0  0  0  0  0  0  0  0  0  0  0  0
    4.2053   -0.3310    1.6188 H   0  0  0  0  0  0  0  0  0  0  0  0
    6.5080   -0.1405    1.9476 H   0  0  0  0  0  0  0  0  0  0  0  0
    4.7909    0.3284   -2.0015 H   0  0  0  0  0  0  0  0  0  0  0  0
    6.9772    0.7136   -2.9192 H   0  0  0  0  0  0  0  0  0  0  0  0
    8.9814    0.6901   -1.4811 H   0  0  0  0  0  0  0  0  0  0  0  0
  1 26  1  0  0  0  0
  2 22  2  0  0  0  0
  3  4  1  0  0  0  0
  3 11  1  0  0  0  0
  3 18  1  0  0  0  0
  4 13  2  0  0  0  0
  5 14  1  0  0  0  0
  5 15  2  0  0  0  0
  6 13  1  0  0  0  0
  6 38  1  0  0  0  0
  6 39  1  0  0  0  0
  7 19  1  0  0  0  0
  7 22  1  0  0  0  0
  7 40  1  0  0  0  0
  8 22  1  0  0  0  0
  8 23  1  0  0  0  0
  8 41  1  0  0  0  0
  9 10  1  0  0  0  0
  9 11  2  0  0  0  0
  9 13  1  0  0  0  0
 10 12  1  0  0  0  0
 10 14  2  0  0  0  0
 11 15  1  0  0  0  0
 12 16  2  0  0  0  0
 12 17  1  0  0  0  0
 14 29  1  0  0  0  0
 15 30  1  0  0  0  0
 16 20  1  0  0  0  0
 16 31  1  0  0  0  0
 17 21  2  0  0  0  0
 17 32  1  0  0  0  0
 18 33  1  0  0  0  0
 18 34  1  0  0  0  0
 18 35  1  0  0  0  0
 19 20  2  0  0  0  0
 19 21  1  0  0  0  0
 20 36  1  0  0  0  0
 21 37  1  0  0  0  0
 23 24  2  0  0  0  0
 23 25  1  0  0  0  0
 24 26  1  0  0  0  0
 24 42  1  0  0  0  0
 25 27  2  0  0  0  0
 25 43  1  0  0  0  0
 26 28  2  0  0  0  0
 27 28  1  0  0  0  0
 27 44  1  0  0  0  0
 28 45  1  0  0  0  0
M  END
> <PUBCHEM_COMPOUND_CID>
11710909

> <PUBCHEM_CONFORMER_RMSD>
0.8

> <PUBCHEM_CONFORMER_DIVERSEORDER>
1
12
7
18
11
14
15
3
19
16
2
9
10
13
6
4
17
5
8

> <PUBCHEM_MMFF94_PARTIAL_CHARGES>
39
1 -0.18
11 -0.15
13 0.37
14 0.16
15 0.16
16 -0.15
17 -0.15
18 0.26
19 0.12
2 -0.57
20 -0.15
21 -0.15
22 0.69
23 0.12
24 -0.15
25 -0.15
26 0.18
27 -0.15
28 -0.15
29 0.15
3 0.31
30 0.15
31 0.15
32 0.15
36 0.15
37 0.15
38 0.4
39 0.4
4 -0.71
40 0.37
41 0.37
42 0.15
43 0.15
44 0.15
45 0.15
5 -0.62
6 -0.88
7 -0.55
8 -0.55

> <PUBCHEM_EFFECTIVE_ROTOR_COUNT>
5

> <PUBCHEM_PHARMACOPHORE_FEATURES>
10
1 2 acceptor
1 5 acceptor
1 6 donor
1 7 donor
1 8 donor
3 4 6 13 cation
5 3 4 9 11 13 rings
6 12 16 17 19 20 21 rings
6 23 24 25 26 27 28 rings
6 5 9 10 11 14 15 rings

> <PUBCHEM_HEAVY_ATOM_COUNT>
28

> <PUBCHEM_ATOM_DEF_STEREO_COUNT>
0

> <PUBCHEM_ATOM_UDEF_STEREO_COUNT>
0

> <PUBCHEM_BOND_DEF_STEREO_COUNT>
0

> <PUBCHEM_BOND_UDEF_STEREO_COUNT>
0

> <PUBCHEM_ISOTOPIC_ATOM_COUNT>
0

> <PUBCHEM_COMPONENT_COUNT>
1

> <PUBCHEM_CACTVS_TAUTO_COUNT>
12

> <PUBCHEM_CONFORMER_ID>
00B2B1BD00000001

> <PUBCHEM_MMFF94_ENERGY>
85.1031

> <PUBCHEM_FEATURE_SELFOVERLAP>
50.892

> <PUBCHEM_SHAPE_FINGERPRINT>
10 15 13190345690611573342
10076449 9 17918276472506407667
10087517 78 18259984842689521501
10299344 5 17967812756560338750
10391435 84 15913036656371034366
106641 1 16298395660716548673
10730089 173 18411700976544612905
10906281 52 17603882095621026382
11135926 11 16588015814400786538
11315181 36 17894914066102392379
11991303 11 16845287302121136908
12082328 90 18413387644081735174
12089408 11 18186518822365611470
12091667 2 18409450310438977947
12236239 1 18040995125155203571
13885169 127 18413669110879668706
13911987 19 16128655220004230903
13914758 101 18410294701288589098
14251764 18 17967250910365922878
14849402 71 17531819059606678604
14856354 85 18338801216803717327
150020 25 17632859715981121856
15183329 4 18411705383181032576
15198563 99 16630256805199398248
15276724 80 17458061578143280316
15328684 2 18115012001669643936
15419008 47 17489584563241951824
15419008 91 17703492368793239688
15461852 350 18412268367399350790
15510794 2 17704072893995299006
1577012 14 18113334202137284635
15849732 13 17561082527478251476
16989713 51 17702376441821947415
21150785 3 13326851137431992240
21756936 100 17967817142006863075
21792961 116 17346322578597656846
22224240 67 15719114652038931513
23081809 10 18113614595325705082
23198884 109 18334016102964233186
23559900 14 18131344220486766233
23576562 1 18119538888862276940
249057 3 18273494598326719589
2838139 119 17530966894902424356
3178227 256 14707213210349603492
394071 54 16443067197317826998
4073 2 18187089455193476562
4339292 15 17702936072003012455
437795 51 13118274851148187144
44280117 145 17417242264754284367
44555599 121 17894919550881423916
445580 37 18412832377787596997
44880568 143 18060427902207641360
5104073 3 16298957588441574712
5265222 85 18129380578113236086
54039377 194 12175324934761916949
57527295 17 16271643366313608835
5758199 1 17676488341212391618
5969126 39 14548742776633331691
59755656 520 17095524019436254155
6201320 215 18267295448500901104

> <PUBCHEM_SHAPE_MULTIPOLES>
542.34
27.14
1.67
1.32
36.81
0.31
-0.02
7.73
-1.85
-4.63
0.03
2.09
-0.1
-1.31

> <PUBCHEM_SHAPE_SELFOVERLAP>
1193.699

> <PUBCHEM_SHAPE_VOLUME>
293.6

> <PUBCHEM_COORDINATE_TYPE>
2
5
10

$$$$
