24905288
  -OEChem-10052115143D

 39 41  0     0  0  0  0  0  0999 V2000
    5.1371    0.2453    0.1051 O   0  0  0  0  0  0  0  0  0  0  0  0
    3.7664    0.2615   -2.3126 O   0  0  0  0  0  0  0  0  0  0  0  0
   -2.4130    1.0233    0.0374 N   0  0  0  0  0  0  0  0  0  0  0  0
   -1.1218    1.4033    0.0508 N   0  0  0  0  0  0  0  0  0  0  0  0
   -3.7480   -0.9965    0.0119 N   0  0  0  0  0  0  0  0  0  0  0  0
   -2.3545   -2.9987    0.0093 N   0  0  0  0  0  0  0  0  0  0  0  0
    0.0307   -2.9102    0.0309 N   0  0  0  0  0  0  0  0  0  0  0  0
   -3.4505    2.0273    0.0360 C   0  0  0  0  0  0  0  0  0  0  0  0
   -2.5831   -0.3293    0.0263 C   0  0  0  0  0  0  0  0  0  0  0  0
   -1.3111   -0.8742    0.0330 C   0  0  0  0  0  0  0  0  0  0  0  0
   -0.4559    0.2433    0.0480 C   0  0  0  0  0  0  0  0  0  0  0  0
   -3.4055    2.8851    1.3029 C   0  0  0  0  0  0  0  0  0  0  0  0
   -3.3850    2.9029   -1.2179 C   0  0  0  0  0  0  0  0  0  0  0  0
    0.9853    0.2448    0.0598 C   0  0  0  0  0  0  0  0  0  0  0  0
   -1.2177   -2.2620    0.0240 C   0  0  0  0  0  0  0  0  0  0  0  0
    1.6921    0.2532   -1.1427 C   0  0  0  0  0  0  0  0  0  0  0  0
    1.6732    0.2368    1.2732 C   0  0  0  0  0  0  0  0  0  0  0  0
    3.0871    0.2539   -1.1318 C   0  0  0  0  0  0  0  0  0  0  0  0
   -3.5322   -2.3297    0.0042 C   0  0  0  0  0  0  0  0  0  0  0  0
    3.0681    0.2371    1.2839 C   0  0  0  0  0  0  0  0  0  0  0  0
    3.7750    0.2458    0.0815 C   0  0  0  0  0  0  0  0  0  0  0  0
    5.7631    0.2368    1.3866 C   0  0  0  0  0  0  0  0  0  0  0  0
   -4.4133    1.5023    0.0244 H   0  0  0  0  0  0  0  0  0  0  0  0
   -2.4817    3.4712    1.3630 H   0  0  0  0  0  0  0  0  0  0  0  0
   -3.4608    2.2585    2.2000 H   0  0  0  0  0  0  0  0  0  0  0  0
   -4.2488    3.5836    1.3268 H   0  0  0  0  0  0  0  0  0  0  0  0
   -2.4603    3.4896   -1.2547 H   0  0  0  0  0  0  0  0  0  0  0  0
   -4.2277    3.6017   -1.2457 H   0  0  0  0  0  0  0  0  0  0  0  0
   -3.4256    2.2889   -2.1244 H   0  0  0  0  0  0  0  0  0  0  0  0
    1.1575    0.2586   -2.0905 H   0  0  0  0  0  0  0  0  0  0  0  0
    1.1358    0.2293    2.2187 H   0  0  0  0  0  0  0  0  0  0  0  0
   -4.4221   -2.9497   -0.0075 H   0  0  0  0  0  0  0  0  0  0  0  0
    3.5350    0.2302    2.2628 H   0  0  0  0  0  0  0  0  0  0  0  0
    0.8943   -2.3880    0.0429 H   0  0  0  0  0  0  0  0  0  0  0  0
    0.0534   -3.9212    0.0249 H   0  0  0  0  0  0  0  0  0  0  0  0
    3.1277    0.2660   -3.0462 H   0  0  0  0  0  0  0  0  0  0  0  0
    6.8449    0.2382    1.2168 H   0  0  0  0  0  0  0  0  0  0  0  0
    5.5301   -0.6771    1.9435 H   0  0  0  0  0  0  0  0  0  0  0  0
    5.5298    1.1431    1.9559 H   0  0  0  0  0  0  0  0  0  0  0  0
  1 21  1  0  0  0  0
  1 22  1  0  0  0  0
  2 18  1  0  0  0  0
  2 36  1  0  0  0  0
  3  4  1  0  0  0  0
  3  8  1  0  0  0  0
  3  9  1  0  0  0  0
  4 11  2  0  0  0  0
  5  9  2  0  0  0  0
  5 19  1  0  0  0  0
  6 15  1  0  0  0  0
  6 19  2  0  0  0  0
  7 15  1  0  0  0  0
  7 34  1  0  0  0  0
  7 35  1  0  0  0  0
  8 12  1  0  0  0  0
  8 13  1  0  0  0  0
  8 23  1  0  0  0  0
  9 10  1  0  0  0  0
 10 11  1  0  0  0  0
 10 15  2  0  0  0  0
 11 14  1  0  0  0  0
 12 24  1  0  0  0  0
 12 25  1  0  0  0  0
 12 26  1  0  0  0  0
 13 27  1  0  0  0  0
 13 28  1  0  0  0  0
 13 29  1  0  0  0  0
 14 16  2  0  0  0  0
 14 17  1  0  0  0  0
 16 18  1  0  0  0  0
 16 30  1  0  0  0  0
 17 20  2  0  0  0  0
 17 31  1  0  0  0  0
 18 21  2  0  0  0  0
 19 32  1  0  0  0  0
 20 21  1  0  0  0  0
 20 33  1  0  0  0  0
 22 37  1  0  0  0  0
 22 38  1  0  0  0  0
 22 39  1  0  0  0  0
M  END
> <PUBCHEM_COMPOUND_CID>
24905288

> <PUBCHEM_CONFORMER_RMSD>
0.6

> <PUBCHEM_CONFORMER_DIVERSEORDER>
1
9
5
10
4
12
11
3
6
8
7
2

> <PUBCHEM_MMFF94_PARTIAL_CHARGES>
26
1 -0.36
11 0.23
14 0.05
15 0.41
16 -0.15
17 -0.15
18 0.08
19 0.47
2 -0.53
20 -0.15
21 0.08
22 0.28
3 0.31
30 0.15
31 0.15
32 0.15
33 0.15
34 0.4
35 0.4
36 0.45
4 -0.71
5 -0.57
6 -0.62
7 -0.9
8 0.26
9 0.11

> <PUBCHEM_EFFECTIVE_ROTOR_COUNT>
3

> <PUBCHEM_PHARMACOPHORE_FEATURES>
11
1 1 acceptor
1 2 donor
1 4 acceptor
1 7 cation
1 7 donor
3 3 5 9 cation
3 5 6 19 cation
3 8 12 13 hydrophobe
5 3 4 9 10 11 rings
6 14 16 17 18 20 21 rings
6 5 6 9 10 15 19 rings

> <PUBCHEM_HEAVY_ATOM_COUNT>
22

> <PUBCHEM_ATOM_DEF_STEREO_COUNT>
0

> <PUBCHEM_ATOM_UDEF_STEREO_COUNT>
0

> <PUBCHEM_BOND_DEF_STEREO_COUNT>
0

> <PUBCHEM_BOND_UDEF_STEREO_COUNT>
0

> <PUBCHEM_ISOTOPIC_ATOM_COUNT>
0

> <PUBCHEM_COMPONENT_COUNT>
1

> <PUBCHEM_CACTVS_TAUTO_COUNT>
15

> <PUBCHEM_CONFORMER_ID>
017C064800000001

> <PUBCHEM_MMFF94_ENERGY>
62.1217

> <PUBCHEM_FEATURE_SELFOVERLAP>
56.099

> <PUBCHEM_SHAPE_FINGERPRINT>
10319926 262 18270663330584619050
10411042 1 17978225290558304971
11315181 36 18187639245994044576
11582403 64 16623429924290008656
11796584 16 18270690753935654894
12107183 9 18046614613215485482
12173636 292 18338516318505664253
12236239 1 17676482878177456106
12422481 6 17826209832432387938
12500047 106 18411973642300598448
12553582 1 18120380006246142683
12788726 201 18191600841537862803
13140716 1 18122630715390991875
13583140 156 17988345045308351210
13862211 1 18194400216003194243
14178342 30 18409448076923855182
14386348 63 17632023043340319654
15042514 8 18265336299363963987
15375358 24 17703785904032556072
15842332 3 17749964361511837532
16752209 62 18336538400166379995
16945 1 18410574028739628987
1741750 31 18340771433891475545
18186145 218 17988655051209619968
19049666 15 17917440782553305382
200 152 16660915668989677926
20510252 161 18271526489545125073
20554085 129 17984673676819547961
20645477 56 18412267215984267945
20645477 70 16343711980599198660
21033648 29 17274809273518293472
21065201 7 18413112762385978910
22182313 1 17632025203845688676
22907989 373 18261105309942308813
23402539 116 18341039822176747023
23557571 272 18201444700865138696
23559900 14 18201164239880187030
23598291 2 17676210190851429084
2748010 2 18193850236839736375
283562 15 18412258467784706587
312423 11 17822865289394836068
4214541 1 18410569596159293384
469060 322 18337127725941228313
474 4 16808428472934984180
5104073 3 18411131408152058410
559249 180 18262791874975228122
573450 72 18261104188865991242
602551 16 18412262874278506498
6049 1 17917719044841809296
633830 44 17773315625974913209
7615 1 17895479232021588076
77492 1 17676205801252420838
81228 2 18338521962308527139
9709674 26 18273220798272158798
9862522 239 17896029945555329781

> <PUBCHEM_SHAPE_MULTIPOLES>
416.11
9.48
3.01
1.32
10.21
0.83
0.33
-3.06
-1.1
-5.71
-0.09
1.37
-0.6
0

> <PUBCHEM_SHAPE_SELFOVERLAP>
909.714

> <PUBCHEM_SHAPE_VOLUME>
226

> <PUBCHEM_COORDINATE_TYPE>
2
5
10

$$$$
