17759787
  -OEChem-10062122003D

 45 48  0     0  0  0  0  0  0999 V2000
   -5.2318   -1.5246    1.3322 Cl  0  0  0  0  0  0  0  0  0  0  0  0
    3.0524    1.3550    2.6663 Cl  0  0  0  0  0  0  0  0  0  0  0  0
    4.9680    1.9233    0.4769 F   0  0  0  0  0  0  0  0  0  0  0  0
    2.2680   -1.5152   -1.7027 O   0  5  0  0  0  0  0  0  0  0  0  0
   -1.2163   -3.2737   -1.2905 N   0  0  0  0  0  0  0  0  0  0  0  0
   -0.3101    1.7628   -1.1749 N   0  0  0  0  0  0  0  0  0  0  0  0
   -3.9114    1.0983    0.8847 N   0  0  0  0  0  0  0  0  0  0  0  0
    2.1023   -2.1443   -0.5914 N   0  3  0  0  0  0  0  0  0  0  0  0
   -1.3614    5.0427   -0.1222 N   0  0  0  0  0  0  0  0  0  0  0  0
   -2.0328    0.2275   -0.3481 C   0  0  0  0  0  0  0  0  0  0  0  0
   -1.5258    1.5271   -0.4818 C   0  0  0  0  0  0  0  0  0  0  0  0
   -1.8897   -2.1631   -0.7433 C   0  0  0  0  0  0  0  0  0  0  0  0
   -3.2451    0.0563    0.3524 C   0  0  0  0  0  0  0  0  0  0  0  0
   -1.3639   -0.8828   -0.8909 C   0  0  0  0  0  0  0  0  0  0  0  0
    0.1719   -3.2490   -1.6356 C   0  0  0  0  0  0  0  0  0  0  0  0
   -3.0833   -2.3390   -0.0543 C   0  0  0  0  0  0  0  0  0  0  0  0
   -3.7482   -1.2350    0.4851 C   0  0  0  0  0  0  0  0  0  0  0  0
   -2.2101    2.6028    0.0655 C   0  0  0  0  0  0  0  0  0  0  0  0
    1.0936   -3.0179   -0.4685 C   0  0  0  0  0  0  0  0  0  0  0  0
    1.0265    1.8037   -0.7518 C   0  0  0  0  0  0  0  0  0  0  0  0
   -3.3882    2.3366    0.7333 C   0  0  0  0  0  0  0  0  0  0  0  0
    0.9068   -3.7008    0.7249 C   0  0  0  0  0  0  0  0  0  0  0  0
    1.3409    1.5849    0.5894 C   0  0  0  0  0  0  0  0  0  0  0  0
    2.0415    2.0624   -1.6730 C   0  0  0  0  0  0  0  0  0  0  0  0
    2.9591   -1.8929    0.4077 C   0  0  0  0  0  0  0  0  0  0  0  0
    1.7816   -3.4590    1.7797 C   0  0  0  0  0  0  0  0  0  0  0  0
    2.8202   -2.5461    1.6240 C   0  0  0  0  0  0  0  0  0  0  0  0
    2.6704    1.6247    1.0096 C   0  0  0  0  0  0  0  0  0  0  0  0
    3.3709    2.1022   -1.2530 C   0  0  0  0  0  0  0  0  0  0  0  0
   -1.7416    3.9495   -0.0381 C   0  0  0  0  0  0  0  0  0  0  0  0
    3.6855    1.8833    0.0882 C   0  0  0  0  0  0  0  0  0  0  0  0
   -0.4483   -0.7309   -1.4525 H   0  0  0  0  0  0  0  0  0  0  0  0
    0.3320   -2.5500   -2.4631 H   0  0  0  0  0  0  0  0  0  0  0  0
    0.4344   -4.2309   -2.0508 H   0  0  0  0  0  0  0  0  0  0  0  0
   -1.6703   -4.1760   -1.1939 H   0  0  0  0  0  0  0  0  0  0  0  0
   -3.4977   -3.3382    0.0638 H   0  0  0  0  0  0  0  0  0  0  0  0
   -0.4503    1.9280   -2.1674 H   0  0  0  0  0  0  0  0  0  0  0  0
   -3.9775    3.1283    1.1876 H   0  0  0  0  0  0  0  0  0  0  0  0
    0.1040   -4.4205    0.8496 H   0  0  0  0  0  0  0  0  0  0  0  0
    0.5593    1.3806    1.3174 H   0  0  0  0  0  0  0  0  0  0  0  0
    1.8108    2.2336   -2.7213 H   0  0  0  0  0  0  0  0  0  0  0  0
    3.7463   -1.1850    0.1988 H   0  0  0  0  0  0  0  0  0  0  0  0
    1.6557   -3.9837    2.7221 H   0  0  0  0  0  0  0  0  0  0  0  0
    3.5115   -2.3516    2.4369 H   0  0  0  0  0  0  0  0  0  0  0  0
    4.1615    2.3025   -1.9702 H   0  0  0  0  0  0  0  0  0  0  0  0
  1 17  1  0  0  0  0
  2 28  1  0  0  0  0
  3 31  1  0  0  0  0
  4  8  1  0  0  0  0
  5 12  1  0  0  0  0
  5 15  1  0  0  0  0
  5 35  1  0  0  0  0
  6 11  1  0  0  0  0
  6 20  1  0  0  0  0
  6 37  1  0  0  0  0
  7 13  2  0  0  0  0
  7 21  1  0  0  0  0
  8 19  1  0  0  0  0
  8 25  2  0  0  0  0
  9 30  3  0  0  0  0
 10 11  2  0  0  0  0
 10 13  1  0  0  0  0
 10 14  1  0  0  0  0
 11 18  1  0  0  0  0
 12 14  2  0  0  0  0
 12 16  1  0  0  0  0
 13 17  1  0  0  0  0
 14 32  1  0  0  0  0
 15 19  1  0  0  0  0
 15 33  1  0  0  0  0
 15 34  1  0  0  0  0
 16 17  2  0  0  0  0
 16 36  1  0  0  0  0
 18 21  2  0  0  0  0
 18 30  1  0  0  0  0
 19 22  2  0  0  0  0
 20 23  2  0  0  0  0
 20 24  1  0  0  0  0
 21 38  1  0  0  0  0
 22 26  1  0  0  0  0
 22 39  1  0  0  0  0
 23 28  1  0  0  0  0
 23 40  1  0  0  0  0
 24 29  2  0  0  0  0
 24 41  1  0  0  0  0
 25 27  1  0  0  0  0
 25 42  1  0  0  0  0
 26 27  2  0  0  0  0
 26 43  1  0  0  0  0
 27 44  1  0  0  0  0
 28 31  2  0  0  0  0
 29 31  1  0  0  0  0
 29 45  1  0  0  0  0
M  CHG  2   4  -1   8   1
M  END
> <PUBCHEM_COMPOUND_CID>
17759787

> <PUBCHEM_CONFORMER_RMSD>
1

> <PUBCHEM_CONFORMER_DIVERSEORDER>
4
130
165
157
80
70
129
86
83
111
31
60
162
124
160
91
15
25
100
151
61
133
92
131
147
167
145
45
49
32
93
42
148
30
52
153
143
44
3
72
59
169
137
110
114
19
170
84
104
22
88
56
108
65
158
38
55
62
159
138
74
118
13
139
122
85
21
99
116
41
64
128
102
164
105
14
126
24
69
134
76
163
120
166
103
20
115
155
107
47
82
28
7
54
77
150
40
57
113
27
18
39
97
125
117
141
90
68
152
46
66
23
58
121
67
73
112
123
94
17
10
53
16
172
109
87
95
63
71
146
36
149
29
2
106
168
75
33
78
132
43
142
1
48
119
101
79
8
127
26
9
171
161
144
89
35
11
5
135
12
156
140
96
51
50
154
34
98
81
6
37
136

> <PUBCHEM_MMFF94_PARTIAL_CHARGES>
42
1 -0.18
11 0.1
12 0.1
13 0.31
14 -0.15
15 0.51
16 -0.15
17 0.18
18 0.07
19 -0.05
2 -0.18
20 0.1
21 0.16
22 -0.15
23 -0.15
24 -0.15
25 -0.06
26 -0.15
27 -0.15
28 0.18
29 -0.15
3 -0.19
30 0.48
31 0.19
32 0.15
35 0.4
36 0.15
37 0.4
38 0.15
39 0.15
4 -0.75
40 0.15
41 0.15
42 0.15
43 0.15
44 0.15
45 0.15
5 -0.87
6 -0.6
7 -0.62
8 0.57
9 -0.56

> <PUBCHEM_EFFECTIVE_ROTOR_COUNT>
5

> <PUBCHEM_PHARMACOPHORE_FEATURES>
11
1 4 anion
1 5 cation
1 5 donor
1 6 cation
1 6 donor
1 7 acceptor
1 9 acceptor
6 10 12 13 14 16 17 rings
6 20 23 24 28 29 31 rings
6 7 10 11 13 18 21 rings
6 8 19 22 25 26 27 rings

> <PUBCHEM_HEAVY_ATOM_COUNT>
31

> <PUBCHEM_ATOM_DEF_STEREO_COUNT>
0

> <PUBCHEM_ATOM_UDEF_STEREO_COUNT>
0

> <PUBCHEM_BOND_DEF_STEREO_COUNT>
0

> <PUBCHEM_BOND_UDEF_STEREO_COUNT>
0

> <PUBCHEM_ISOTOPIC_ATOM_COUNT>
0

> <PUBCHEM_COMPONENT_COUNT>
1

> <PUBCHEM_CACTVS_TAUTO_COUNT>
3

> <PUBCHEM_CONFORMER_ID>
010EFE2B00000004

> <PUBCHEM_MMFF94_ENERGY>
114.3913

> <PUBCHEM_FEATURE_SELFOVERLAP>
55.852

> <PUBCHEM_SHAPE_FINGERPRINT>
10006869 2 18411979170261638207
10675989 125 17404280289884061375
11513181 2 17916571039218810502
11578080 2 17313378977331778639
12156800 1 15106711809163056254
12422481 6 18124280897972102362
12553582 1 18194680603888409845
12788726 201 17545894079561905310
13122387 1 17978791212032288075
13140716 1 18338242557527197369
14178342 30 18409725154002215620
15420108 30 18059027176344645695
16110190 28 17903627498273978810
19319366 153 17244979694681719072
20600515 1 17622162369801603470
20905425 154 18342184374867957006
21421861 104 18334868194590115953
21796203 349 17612908145065516609
35225 105 17773587415773387266
392239 28 18115880770031550763
445580 8 18192140714537063923
463206 1 18120372317901086123
57091435 65 18407761426155769426
6287921 2 18410568483525757378

> <PUBCHEM_SHAPE_MULTIPOLES>
603.66
7.54
6.1
1.73
2.08
0.46
-0.42
1.28
-3.01
-0.32
0.15
-1.3
-0.54
-0.69

> <PUBCHEM_SHAPE_SELFOVERLAP>
1320.61

> <PUBCHEM_SHAPE_VOLUME>
330.1

> <PUBCHEM_COORDINATE_TYPE>
2
5
10

$$$$
