49830509
  -OEChem-10052120443D

 50 52  0     0  0  0  0  0  0999 V2000
    0.9285    2.7461   -1.5773 S   0  0  0  0  0  0  0  0  0  0  0  0
    3.9848   -1.9249    0.3586 O   0  0  0  0  0  0  0  0  0  0  0  0
    0.4158    1.9247   -2.6648 O   0  0  0  0  0  0  0  0  0  0  0  0
    1.5511    4.0292   -1.8721 O   0  0  0  0  0  0  0  0  0  0  0  0
    6.3860   -0.8238   -0.1312 O   0  0  0  0  0  0  0  0  0  0  0  0
   -3.5110    1.3930    0.6538 N   0  0  0  0  0  0  0  0  0  0  0  0
   -1.4429   -2.6447   -0.6155 N   0  0  0  0  0  0  0  0  0  0  0  0
   -2.4679   -0.6107    0.0184 N   0  0  0  0  0  0  0  0  0  0  0  0
   -4.8080   -0.5616    0.5916 N   0  0  0  0  0  0  0  0  0  0  0  0
    2.0136    1.8117   -0.6450 N   0  0  0  0  0  0  0  0  0  0  0  0
    6.1379    0.7521    1.5275 N   0  0  0  0  0  0  0  0  0  0  0  0
   -2.4449    2.3077    0.5719 C   0  0  0  0  0  0  0  0  0  0  0  0
   -0.3595    3.0063   -0.4280 C   0  0  0  0  0  0  0  0  0  0  0  0
   -2.5884   -1.9359   -0.2048 C   0  0  0  0  0  0  0  0  0  0  0  0
   -1.4166    2.1000   -0.3475 C   0  0  0  0  0  0  0  0  0  0  0  0
   -3.7687   -2.6346   -0.0533 C   0  0  0  0  0  0  0  0  0  0  0  0
   -0.0664   -2.4609   -0.3690 C   0  0  0  0  0  0  0  0  0  0  0  0
   -3.6003    0.0052    0.4084 C   0  0  0  0  0  0  0  0  0  0  0  0
   -2.4159    3.4218    1.4108 C   0  0  0  0  0  0  0  0  0  0  0  0
   -0.3303    4.1203    0.4110 C   0  0  0  0  0  0  0  0  0  0  0  0
   -1.3587    4.3281    1.3303 C   0  0  0  0  0  0  0  0  0  0  0  0
   -4.8567   -1.8882    0.3508 C   0  0  0  0  0  0  0  0  0  0  0  0
    0.8721   -2.8615   -1.3202 C   0  0  0  0  0  0  0  0  0  0  0  0
    0.3566   -1.8800    0.8264 C   0  0  0  0  0  0  0  0  0  0  0  0
   -3.8968   -4.0952   -0.2991 C   0  0  0  0  0  0  0  0  0  0  0  0
    2.6563   -2.1005    0.1199 C   0  0  0  0  0  0  0  0  0  0  0  0
    2.2334   -2.6813   -1.0757 C   0  0  0  0  0  0  0  0  0  0  0  0
    1.7179   -1.6999    1.0710 C   0  0  0  0  0  0  0  0  0  0  0  0
    4.3560   -0.8193    1.1808 C   0  0  0  0  0  0  0  0  0  0  0  0
    5.7229   -0.3231    0.7723 C   0  0  0  0  0  0  0  0  0  0  0  0
   -1.4384    1.2617   -1.0352 H   0  0  0  0  0  0  0  0  0  0  0  0
   -4.3566    1.7683    1.0729 H   0  0  0  0  0  0  0  0  0  0  0  0
   -1.6302   -3.3112   -1.3597 H   0  0  0  0  0  0  0  0  0  0  0  0
   -3.2103    3.5944    2.1325 H   0  0  0  0  0  0  0  0  0  0  0  0
    0.4865    4.8353    0.3704 H   0  0  0  0  0  0  0  0  0  0  0  0
   -1.3352    5.1945    1.9849 H   0  0  0  0  0  0  0  0  0  0  0  0
   -5.8332   -2.3382    0.4999 H   0  0  0  0  0  0  0  0  0  0  0  0
    0.5559   -3.3146   -2.2564 H   0  0  0  0  0  0  0  0  0  0  0  0
   -0.3549   -1.5760    1.5896 H   0  0  0  0  0  0  0  0  0  0  0  0
   -3.7605   -4.3188   -1.3621 H   0  0  0  0  0  0  0  0  0  0  0  0
   -3.1588   -4.6542    0.2858 H   0  0  0  0  0  0  0  0  0  0  0  0
   -4.8852   -4.4677   -0.0082 H   0  0  0  0  0  0  0  0  0  0  0  0
    2.9600   -2.9947   -1.8204 H   0  0  0  0  0  0  0  0  0  0  0  0
    2.0066   -1.2711    2.0261 H   0  0  0  0  0  0  0  0  0  0  0  0
    2.8889    2.2564   -0.3427 H   0  0  0  0  0  0  0  0  0  0  0  0
    2.1143    0.8182   -0.8864 H   0  0  0  0  0  0  0  0  0  0  0  0
    3.6677    0.0275    1.0685 H   0  0  0  0  0  0  0  0  0  0  0  0
    4.3952   -1.1423    2.2270 H   0  0  0  0  0  0  0  0  0  0  0  0
    7.0387    1.1890    1.3625 H   0  0  0  0  0  0  0  0  0  0  0  0
    5.5687    1.1462    2.2697 H   0  0  0  0  0  0  0  0  0  0  0  0
  1  3  2  0  0  0  0
  1  4  2  0  0  0  0
  1 10  1  0  0  0  0
  1 13  1  0  0  0  0
  2 26  1  0  0  0  0
  2 29  1  0  0  0  0
  5 30  2  0  0  0  0
  6 12  1  0  0  0  0
  6 18  1  0  0  0  0
  6 32  1  0  0  0  0
  7 14  1  0  0  0  0
  7 17  1  0  0  0  0
  7 33  1  0  0  0  0
  8 14  2  0  0  0  0
  8 18  1  0  0  0  0
  9 18  2  0  0  0  0
  9 22  1  0  0  0  0
 10 45  1  0  0  0  0
 10 46  1  0  0  0  0
 11 30  1  0  0  0  0
 11 49  1  0  0  0  0
 11 50  1  0  0  0  0
 12 15  2  0  0  0  0
 12 19  1  0  0  0  0
 13 15  1  0  0  0  0
 13 20  2  0  0  0  0
 14 16  1  0  0  0  0
 15 31  1  0  0  0  0
 16 22  2  0  0  0  0
 16 25  1  0  0  0  0
 17 23  2  0  0  0  0
 17 24  1  0  0  0  0
 19 21  2  0  0  0  0
 19 34  1  0  0  0  0
 20 21  1  0  0  0  0
 20 35  1  0  0  0  0
 21 36  1  0  0  0  0
 22 37  1  0  0  0  0
 23 27  1  0  0  0  0
 23 38  1  0  0  0  0
 24 28  2  0  0  0  0
 24 39  1  0  0  0  0
 25 40  1  0  0  0  0
 25 41  1  0  0  0  0
 25 42  1  0  0  0  0
 26 27  2  0  0  0  0
 26 28  1  0  0  0  0
 27 43  1  0  0  0  0
 28 44  1  0  0  0  0
 29 30  1  0  0  0  0
 29 47  1  0  0  0  0
 29 48  1  0  0  0  0
M  END
> <PUBCHEM_COMPOUND_CID>
49830509

> <PUBCHEM_CONFORMER_RMSD>
1

> <PUBCHEM_CONFORMER_DIVERSEORDER>
1
29
140
133
153
25
19
144
161
109
94
157
12
136
13
164
156
134
41
46
123
78
159
24
76
97
35
146
143
93
28
21
89
23
163
106
48
98
66
95
103
20
10
137
128
117
40
6
34
37
155
38
99
67
61
138
87
55
132
11
141
162
92
45
39
165
62
15
131
129
110
71
82
49
149
65
104
44
100
26
121
119
101
127
151
2
125
50
124
142
4
64
81
148
120
122
130
70
36
7
43
57
47
53
166
69
33
52
118
86
154
16
116
115
9
17
107
112
18
91
14
59
90
73
83
105
139
68
74
84
147
85
51
77
135
27
56
8
114
75
150
63
145
96
160
54
60
102
31
42
22
30
158
5
58
88
152
79
80
111
3
108
32
72
126
113

> <PUBCHEM_MMFF94_PARTIAL_CHARGES>
45
1 1.45
10 -0.98
11 -0.8
12 0.1
13 -0.01
14 0.41
15 -0.15
16 -0.14
17 0.1
18 0.72
19 -0.15
2 -0.36
20 -0.15
21 -0.15
22 0.16
23 -0.15
24 -0.15
25 0.14
26 0.08
27 -0.15
28 -0.15
29 0.34
3 -0.65
30 0.57
31 0.15
32 0.4
33 0.4
34 0.15
35 0.15
36 0.15
37 0.15
38 0.15
39 0.15
4 -0.65
43 0.15
44 0.15
45 0.42
46 0.42
49 0.37
5 -0.57
50 0.37
6 -0.6
7 -0.6
8 -0.62
9 -0.62

> <PUBCHEM_EFFECTIVE_ROTOR_COUNT>
8

> <PUBCHEM_PHARMACOPHORE_FEATURES>
12
1 10 donor
1 11 donor
1 2 acceptor
1 3 acceptor
1 4 acceptor
1 5 acceptor
1 6 donor
1 7 donor
4 6 8 9 18 cation
6 12 13 15 19 20 21 rings
6 17 23 24 26 27 28 rings
6 8 9 14 16 18 22 rings

> <PUBCHEM_HEAVY_ATOM_COUNT>
30

> <PUBCHEM_ATOM_DEF_STEREO_COUNT>
0

> <PUBCHEM_ATOM_UDEF_STEREO_COUNT>
0

> <PUBCHEM_BOND_DEF_STEREO_COUNT>
0

> <PUBCHEM_BOND_UDEF_STEREO_COUNT>
0

> <PUBCHEM_ISOTOPIC_ATOM_COUNT>
0

> <PUBCHEM_COMPONENT_COUNT>
1

> <PUBCHEM_CACTVS_TAUTO_COUNT>
18

> <PUBCHEM_CONFORMER_ID>
02F85A6D00000001

> <PUBCHEM_MMFF94_ENERGY>
91.1173

> <PUBCHEM_FEATURE_SELFOVERLAP>
60.922

> <PUBCHEM_SHAPE_FINGERPRINT>
10165383 225 16683467412710975055
10670039 82 18338243674535517726
1100329 8 18409453605106057939
11595378 159 18115289091421220538
12156800 1 16842799063994030344
12788726 201 18195267704743792668
13561361 72 18339072693306851200
14394314 77 18268153243495375137
14725015 67 15891372222126491898
14955137 171 18195244640183960858
15419008 145 18338498774445072922
15961568 22 18413670223060167374
15968369 153 18200591544603961208
17627616 140 17832147495120683812
18336668 15 18187642548106437989
19319366 153 17254003454903007740
19611394 137 18045790241061469107
20765182 5 18410573968293510840
21795232 40 18261655013747695061
24771293 8 18059298665706457819
25019877 29 17346316067807500038
463206 1 18265625445077541931
469060 322 17168423762472177246
474144 1 18115601485656309964
57091435 65 18050567649290240179
57527585 103 17460345254613275659
6287921 2 17907593436477749196
653340 110 18341612551923610480
7808743 9 18197495134485623154

> <PUBCHEM_SHAPE_MULTIPOLES>
567.87
10.16
6.64
1.51
12.14
4.63
-0.63
-6.34
4.22
-4.1
-0.81
0.96
1.2
-1.36

> <PUBCHEM_SHAPE_SELFOVERLAP>
1205.801

> <PUBCHEM_SHAPE_VOLUME>
317.2

> <PUBCHEM_COORDINATE_TYPE>
2
5
10

$$$$
