49830660
  -OEChem-10062121543D

 68 71  0     0  0  0  0  0  0999 V2000
    1.6408   -1.9937   -1.6575 O   0  0  0  0  0  0  0  0  0  0  0  0
   -2.2592    3.0575    1.7990 O   0  0  0  0  0  0  0  0  0  0  0  0
   -0.3961    4.4424    0.2223 O   0  0  0  0  0  0  0  0  0  0  0  0
    4.1688   -2.5296   -0.8790 O   0  0  0  0  0  0  0  0  0  0  0  0
    4.2323   -4.0432    3.3331 O   0  0  0  0  0  0  0  0  0  0  0  0
   -2.8282   -0.6050   -0.5732 N   0  0  0  0  0  0  0  0  0  0  0  0
   -3.9390   -1.3360   -0.3782 N   0  0  0  0  0  0  0  0  0  0  0  0
   -1.6803    1.4250    0.1817 N   0  0  0  0  0  0  0  0  0  0  0  0
    3.7036   -2.0401    1.3464 N   0  0  0  0  0  0  0  0  0  0  0  0
   -5.8849   -1.1454    1.0654 C   0  0  0  0  0  0  0  0  0  0  0  0
   -4.5900   -0.6523    0.5666 C   0  0  0  0  0  0  0  0  0  0  0  0
   -5.8462   -1.4362    2.6048 C   0  0  0  0  0  0  0  0  0  0  0  0
   -6.4101   -2.4802    0.4200 C   0  0  0  0  0  0  0  0  0  0  0  0
   -7.0358   -0.1086    0.8276 C   0  0  0  0  0  0  0  0  0  0  0  0
   -3.9004    0.5062    0.9717 C   0  0  0  0  0  0  0  0  0  0  0  0
   -2.7567    0.5087    0.2112 C   0  0  0  0  0  0  0  0  0  0  0  0
   -1.8839   -1.0231   -1.5124 C   0  0  0  0  0  0  0  0  0  0  0  0
   -0.5778   -1.3039   -1.1109 C   0  0  0  0  0  0  0  0  0  0  0  0
   -2.2460   -1.1592   -2.8527 C   0  0  0  0  0  0  0  0  0  0  0  0
   -1.5399    2.5626    0.9476 C   0  0  0  0  0  0  0  0  0  0  0  0
    0.3661   -1.7210   -2.0494 C   0  0  0  0  0  0  0  0  0  0  0  0
   -1.3021   -1.5759   -3.7912 C   0  0  0  0  0  0  0  0  0  0  0  0
    1.0406    2.6457    0.8322 C   0  0  0  0  0  0  0  0  0  0  0  0
   -0.2557    3.2885    0.6349 C   0  0  0  0  0  0  0  0  0  0  0  0
    0.0039   -1.8571   -3.3896 C   0  0  0  0  0  0  0  0  0  0  0  0
    1.9506    2.4449   -0.2186 C   0  0  0  0  0  0  0  0  0  0  0  0
    3.1886    1.8137    0.0492 C   0  0  0  0  0  0  0  0  0  0  0  0
    1.3470    2.2299    2.1282 C   0  0  0  0  0  0  0  0  0  0  0  0
    1.6589    2.8569   -1.5291 C   0  0  0  0  0  0  0  0  0  0  0  0
    3.4803    1.4017    1.3597 C   0  0  0  0  0  0  0  0  0  0  0  0
    2.5644    1.6091    2.3915 C   0  0  0  0  0  0  0  0  0  0  0  0
    4.0985    1.6129   -1.0016 C   0  0  0  0  0  0  0  0  0  0  0  0
    1.9420   -1.8334   -0.2721 C   0  0  0  0  0  0  0  0  0  0  0  0
    2.5748    2.6495   -2.5609 C   0  0  0  0  0  0  0  0  0  0  0  0
    3.7923    2.0287   -2.2977 C   0  0  0  0  0  0  0  0  0  0  0  0
    3.3906   -2.1762    0.0029 C   0  0  0  0  0  0  0  0  0  0  0  0
    5.0207   -2.3070    1.8763 C   0  0  0  0  0  0  0  0  0  0  0  0
    5.1676   -3.7566    2.3014 C   0  0  0  0  0  0  0  0  0  0  0  0
   -6.8124   -1.8015    2.9707 H   0  0  0  0  0  0  0  0  0  0  0  0
   -5.0861   -2.1912    2.8372 H   0  0  0  0  0  0  0  0  0  0  0  0
   -5.5974   -0.5314    3.1711 H   0  0  0  0  0  0  0  0  0  0  0  0
   -7.3760   -2.7811    0.8416 H   0  0  0  0  0  0  0  0  0  0  0  0
   -6.5373   -2.3656   -0.6628 H   0  0  0  0  0  0  0  0  0  0  0  0
   -5.7009   -3.2993    0.5875 H   0  0  0  0  0  0  0  0  0  0  0  0
   -7.9967   -0.4798    1.2015 H   0  0  0  0  0  0  0  0  0  0  0  0
   -6.8249    0.8387    1.3370 H   0  0  0  0  0  0  0  0  0  0  0  0
   -7.1467    0.1083   -0.2413 H   0  0  0  0  0  0  0  0  0  0  0  0
   -4.1983    1.2324    1.7140 H   0  0  0  0  0  0  0  0  0  0  0  0
   -0.9490    1.2156   -0.4921 H   0  0  0  0  0  0  0  0  0  0  0  0
   -0.3499   -1.1956   -0.0552 H   0  0  0  0  0  0  0  0  0  0  0  0
   -3.2583   -0.9403   -3.1840 H   0  0  0  0  0  0  0  0  0  0  0  0
   -1.5836   -1.6807   -4.8350 H   0  0  0  0  0  0  0  0  0  0  0  0
    0.7350   -2.1808   -4.1254 H   0  0  0  0  0  0  0  0  0  0  0  0
    0.6477    2.3859    2.9460 H   0  0  0  0  0  0  0  0  0  0  0  0
    0.7175    3.3341   -1.7874 H   0  0  0  0  0  0  0  0  0  0  0  0
    4.4281    0.9198    1.5892 H   0  0  0  0  0  0  0  0  0  0  0  0
    2.8032    1.2863    3.4006 H   0  0  0  0  0  0  0  0  0  0  0  0
    5.0551    1.1277   -0.8190 H   0  0  0  0  0  0  0  0  0  0  0  0
    1.7871   -0.7951    0.0381 H   0  0  0  0  0  0  0  0  0  0  0  0
    1.3369   -2.5232    0.3303 H   0  0  0  0  0  0  0  0  0  0  0  0
    2.3358    2.9695   -3.5709 H   0  0  0  0  0  0  0  0  0  0  0  0
    4.5041    1.8659   -3.1017 H   0  0  0  0  0  0  0  0  0  0  0  0
    2.9808   -1.7478    1.9978 H   0  0  0  0  0  0  0  0  0  0  0  0
    5.7725   -2.0543    1.1217 H   0  0  0  0  0  0  0  0  0  0  0  0
    5.1484   -1.6428    2.7374 H   0  0  0  0  0  0  0  0  0  0  0  0
    4.9777   -4.4359    1.4640 H   0  0  0  0  0  0  0  0  0  0  0  0
    6.1756   -3.9389    2.6863 H   0  0  0  0  0  0  0  0  0  0  0  0
    4.3591   -4.9746    3.5821 H   0  0  0  0  0  0  0  0  0  0  0  0
  1 21  1  0  0  0  0
  1 33  1  0  0  0  0
  2 20  2  0  0  0  0
  3 24  2  0  0  0  0
  4 36  2  0  0  0  0
  5 38  1  0  0  0  0
  5 68  1  0  0  0  0
  6  7  1  0  0  0  0
  6 16  1  0  0  0  0
  6 17  1  0  0  0  0
  7 11  2  0  0  0  0
  8 16  1  0  0  0  0
  8 20  1  0  0  0  0
  8 49  1  0  0  0  0
  9 36  1  0  0  0  0
  9 37  1  0  0  0  0
  9 63  1  0  0  0  0
 10 11  1  0  0  0  0
 10 12  1  0  0  0  0
 10 13  1  0  0  0  0
 10 14  1  0  0  0  0
 11 15  1  0  0  0  0
 12 39  1  0  0  0  0
 12 40  1  0  0  0  0
 12 41  1  0  0  0  0
 13 42  1  0  0  0  0
 13 43  1  0  0  0  0
 13 44  1  0  0  0  0
 14 45  1  0  0  0  0
 14 46  1  0  0  0  0
 14 47  1  0  0  0  0
 15 16  2  0  0  0  0
 15 48  1  0  0  0  0
 17 18  2  0  0  0  0
 17 19  1  0  0  0  0
 18 21  1  0  0  0  0
 18 50  1  0  0  0  0
 19 22  2  0  0  0  0
 19 51  1  0  0  0  0
 20 24  1  0  0  0  0
 21 25  2  0  0  0  0
 22 25  1  0  0  0  0
 22 52  1  0  0  0  0
 23 24  1  0  0  0  0
 23 26  1  0  0  0  0
 23 28  2  0  0  0  0
 25 53  1  0  0  0  0
 26 27  1  0  0  0  0
 26 29  2  0  0  0  0
 27 30  1  0  0  0  0
 27 32  2  0  0  0  0
 28 31  1  0  0  0  0
 28 54  1  0  0  0  0
 29 34  1  0  0  0  0
 29 55  1  0  0  0  0
 30 31  2  0  0  0  0
 30 56  1  0  0  0  0
 31 57  1  0  0  0  0
 32 35  1  0  0  0  0
 32 58  1  0  0  0  0
 33 36  1  0  0  0  0
 33 59  1  0  0  0  0
 33 60  1  0  0  0  0
 34 35  2  0  0  0  0
 34 61  1  0  0  0  0
 35 62  1  0  0  0  0
 37 38  1  0  0  0  0
 37 64  1  0  0  0  0
 37 65  1  0  0  0  0
 38 66  1  0  0  0  0
 38 67  1  0  0  0  0
M  END
> <PUBCHEM_COMPOUND_CID>
49830660

> <PUBCHEM_CONFORMER_RMSD>
1.2

> <PUBCHEM_CONFORMER_DIVERSEORDER>
1
147
53
62
174
140
42
47
143
133
41
38
111
10
175
100
123
113
51
146
74
48
44
35
2
87
80
15
86
12
127
116
171
165
97
6
52
118
61
31
8
131
70
121
14
50
11
57
129
33
69
83
93
81
112
91
90
99
7
148
27
5
43
160
117
125
17
55
36
105
34
18
128
9
164
3
104
19
169
124
103
32
79
66
139
39
138
26
64
101
30
167
108
77
176
151
46
60
63
163
85
65
29
73
161
119
173
21
95
120
153
89
24
170
59
84
75
78
16
144
71
107
45
102
130
150
76
88
145
67
115
82
149
96
13
134
28
92
136
72
114
141
157
106
68
56
110
22
49
4
132
23
94
122
172
168
155
137
126
58
135
40
158
25
109
154
162
37
152
159
20
166
142
98
156
54

> <PUBCHEM_MMFF94_PARTIAL_CHARGES>
48
1 -0.36
10 0.18
11 0.11
15 -0.15
16 -0.09
17 -0.02
18 -0.15
19 -0.15
2 -0.57
20 0.63
21 0.08
22 -0.15
23 0.09
24 0.48
25 -0.15
28 -0.15
29 -0.15
3 -0.57
30 -0.15
31 -0.15
32 -0.15
33 0.34
34 -0.15
35 -0.15
36 0.57
37 0.3
38 0.28
4 -0.57
48 0.15
49 0.37
5 -0.68
50 0.15
51 0.15
52 0.15
53 0.15
54 0.15
55 0.15
56 0.15
57 0.15
58 0.15
6 0.59
61 0.15
62 0.15
63 0.37
68 0.4
7 -0.71
8 -0.49
9 -0.73

> <PUBCHEM_EFFECTIVE_ROTOR_COUNT>
12

> <PUBCHEM_PHARMACOPHORE_FEATURES>
14
1 1 acceptor
1 2 acceptor
1 3 acceptor
1 4 acceptor
1 5 acceptor
1 5 donor
1 7 acceptor
1 8 donor
1 9 donor
4 10 12 13 14 hydrophobe
5 6 7 11 15 16 rings
6 17 18 19 21 22 25 rings
6 23 26 27 28 30 31 rings
6 26 27 29 32 34 35 rings

> <PUBCHEM_HEAVY_ATOM_COUNT>
38

> <PUBCHEM_ATOM_DEF_STEREO_COUNT>
0

> <PUBCHEM_ATOM_UDEF_STEREO_COUNT>
0

> <PUBCHEM_BOND_DEF_STEREO_COUNT>
0

> <PUBCHEM_BOND_UDEF_STEREO_COUNT>
0

> <PUBCHEM_ISOTOPIC_ATOM_COUNT>
0

> <PUBCHEM_COMPONENT_COUNT>
1

> <PUBCHEM_CACTVS_TAUTO_COUNT>
8

> <PUBCHEM_CONFORMER_ID>
02F85B0400000001

> <PUBCHEM_MMFF94_ENERGY>
118.0719

> <PUBCHEM_FEATURE_SELFOVERLAP>
71.089

> <PUBCHEM_SHAPE_FINGERPRINT>
11578080 2 18040716957730508165
12422481 6 17916872313920213739
12655387 17 18045510721037909593
131258 38 18265047127626289990
13383668 262 17534637197944797315
13512321 179 14614103134242088947
13636023 51 17676768768592063527
14950920 106 18335415751455328923
15297060 5 16199051537566467279
15324884 4 17269759005747155190
15403338 16 18334014982362975247
15444296 8 17679300767460337068
19315092 285 17894918403444738330
19319366 153 18119535581273650436
20775530 9 18338790135644973252
208703 8 18337961065555831750
513532 50 14979964657220458110
56638632 33 18261669363486274003

> <PUBCHEM_SHAPE_MULTIPOLES>
732.75
12.44
5.14
3.53
17.12
0.45
1.54
-8.96
-8.43
-6.55
-2.14
-1.85
-2.37
-3.98

> <PUBCHEM_SHAPE_SELFOVERLAP>
1583.443

> <PUBCHEM_SHAPE_VOLUME>
400.2

> <PUBCHEM_COORDINATE_TYPE>
2
5
10

$$$$
