49830709
  -OEChem-10062121553D

 43 45  0     1  0  0  0  0  0999 V2000
   -6.3711   -1.1169   -1.5997 O   0  0  0  0  0  0  0  0  0  0  0  0
   -0.5583    2.8557   -0.8641 O   0  0  0  0  0  0  0  0  0  0  0  0
   -1.3859    1.0782    0.3721 N   0  0  0  0  0  0  0  0  0  0  0  0
    3.3592    1.4551   -0.2346 N   0  0  0  0  0  0  0  0  0  0  0  0
    2.3836   -0.7394   -0.0371 N   0  0  0  0  0  0  0  0  0  0  0  0
    7.2933   -1.5940    0.0393 N   0  0  0  0  0  0  0  0  0  0  0  0
   -2.7701    1.5205    0.3884 C   0  0  1  0  0  0  0  0  0  0  0  0
   -3.7305    0.3809    0.4419 C   0  0  0  0  0  0  0  0  0  0  0  0
   -2.9551    2.5288    1.5321 C   0  0  0  0  0  0  0  0  0  0  0  0
   -4.6118    0.1615   -0.6169 C   0  0  0  0  0  0  0  0  0  0  0  0
   -3.7482   -0.4650    1.5508 C   0  0  0  0  0  0  0  0  0  0  0  0
   -0.3919    1.7980   -0.2626 C   0  0  0  0  0  0  0  0  0  0  0  0
   -5.5107   -0.9039   -0.5668 C   0  0  0  0  0  0  0  0  0  0  0  0
   -4.6473   -1.5303    1.6012 C   0  0  0  0  0  0  0  0  0  0  0  0
   -5.5284   -1.7500    0.5422 C   0  0  0  0  0  0  0  0  0  0  0  0
    0.9663    1.1982   -0.2110 C   0  0  0  0  0  0  0  0  0  0  0  0
    2.1111    1.9653   -0.2803 C   0  0  0  0  0  0  0  0  0  0  0  0
    1.1655   -0.1619   -0.0889 C   0  0  0  0  0  0  0  0  0  0  0  0
    3.4214    0.1153   -0.1141 C   0  0  0  0  0  0  0  0  0  0  0  0
    4.7379   -0.4655   -0.0624 C   0  0  0  0  0  0  0  0  0  0  0  0
    5.7981    0.1470   -0.7213 C   0  0  0  0  0  0  0  0  0  0  0  0
    4.9538   -1.6416    0.6475 C   0  0  0  0  0  0  0  0  0  0  0  0
   -7.2642   -2.2236   -1.4828 C   0  0  0  0  0  0  0  0  0  0  0  0
    7.0449   -0.4520   -0.6403 C   0  0  0  0  0  0  0  0  0  0  0  0
    6.2385   -2.1604    0.6673 C   0  0  0  0  0  0  0  0  0  0  0  0
   -2.9360    2.0785   -0.5428 H   0  0  0  0  0  0  0  0  0  0  0  0
   -2.7109    2.0907    2.5064 H   0  0  0  0  0  0  0  0  0  0  0  0
   -2.3029    3.3988    1.3967 H   0  0  0  0  0  0  0  0  0  0  0  0
   -3.9897    2.8870    1.5735 H   0  0  0  0  0  0  0  0  0  0  0  0
   -1.1505    0.2496    0.9089 H   0  0  0  0  0  0  0  0  0  0  0  0
   -4.6068    0.8145   -1.4861 H   0  0  0  0  0  0  0  0  0  0  0  0
   -3.0676   -0.3135    2.3843 H   0  0  0  0  0  0  0  0  0  0  0  0
   -4.6597   -2.1889    2.4648 H   0  0  0  0  0  0  0  0  0  0  0  0
   -6.1997   -2.5955    0.6463 H   0  0  0  0  0  0  0  0  0  0  0  0
    2.0694    3.0459   -0.3737 H   0  0  0  0  0  0  0  0  0  0  0  0
    0.3471   -0.8730   -0.0492 H   0  0  0  0  0  0  0  0  0  0  0  0
    5.6827    1.0600   -1.2964 H   0  0  0  0  0  0  0  0  0  0  0  0
    4.1644   -2.1550    1.1868 H   0  0  0  0  0  0  0  0  0  0  0  0
   -6.7229   -3.1748   -1.4405 H   0  0  0  0  0  0  0  0  0  0  0  0
   -7.9511   -2.0988   -0.6388 H   0  0  0  0  0  0  0  0  0  0  0  0
   -7.8748   -2.2435   -2.3915 H   0  0  0  0  0  0  0  0  0  0  0  0
    7.9044   -0.0154   -1.1384 H   0  0  0  0  0  0  0  0  0  0  0  0
    6.4603   -3.0743    1.2085 H   0  0  0  0  0  0  0  0  0  0  0  0
  1 13  1  0  0  0  0
  1 23  1  0  0  0  0
  2 12  2  0  0  0  0
  3  7  1  0  0  0  0
  3 12  1  0  0  0  0
  3 30  1  0  0  0  0
  4 17  2  0  0  0  0
  4 19  1  0  0  0  0
  5 18  1  0  0  0  0
  5 19  2  0  0  0  0
  6 24  2  0  0  0  0
  6 25  1  0  0  0  0
  7  8  1  0  0  0  0
  7  9  1  0  0  0  0
  7 26  1  0  0  0  0
  8 10  2  0  0  0  0
  8 11  1  0  0  0  0
  9 27  1  0  0  0  0
  9 28  1  0  0  0  0
  9 29  1  0  0  0  0
 10 13  1  0  0  0  0
 10 31  1  0  0  0  0
 11 14  2  0  0  0  0
 11 32  1  0  0  0  0
 12 16  1  0  0  0  0
 13 15  2  0  0  0  0
 14 15  1  0  0  0  0
 14 33  1  0  0  0  0
 15 34  1  0  0  0  0
 16 17  1  0  0  0  0
 16 18  2  0  0  0  0
 17 35  1  0  0  0  0
 18 36  1  0  0  0  0
 19 20  1  0  0  0  0
 20 21  2  0  0  0  0
 20 22  1  0  0  0  0
 21 24  1  0  0  0  0
 21 37  1  0  0  0  0
 22 25  2  0  0  0  0
 22 38  1  0  0  0  0
 23 39  1  0  0  0  0
 23 40  1  0  0  0  0
 23 41  1  0  0  0  0
 24 42  1  0  0  0  0
 25 43  1  0  0  0  0
M  END
> <PUBCHEM_COMPOUND_CID>
49830709

> <PUBCHEM_CONFORMER_RMSD>
0.8

> <PUBCHEM_CONFORMER_DIVERSEORDER>
6
31
5
25
45
3
32
29
34
27
39
14
40
10
42
7
11
43
44
30
19
12
21
28
46
16
23
8
36
41
13
18
35
22
4
17
15
37
20
24
33
26
38
9
47
1
2

> <PUBCHEM_MMFF94_PARTIAL_CHARGES>
34
1 -0.36
10 -0.15
11 -0.15
12 0.54
13 0.08
14 -0.15
15 -0.15
16 0.09
17 0.16
18 0.16
19 0.62
2 -0.57
21 -0.15
22 -0.15
23 0.28
24 0.16
25 0.16
3 -0.73
30 0.37
31 0.15
32 0.15
33 0.15
34 0.15
35 0.15
36 0.15
37 0.15
38 0.15
4 -0.62
42 0.15
43 0.15
5 -0.62
6 -0.62
7 0.44
8 -0.14

> <PUBCHEM_EFFECTIVE_ROTOR_COUNT>
6

> <PUBCHEM_PHARMACOPHORE_FEATURES>
9
1 1 acceptor
1 2 acceptor
1 3 donor
1 4 acceptor
1 6 acceptor
3 4 5 19 cation
6 4 5 16 17 18 19 rings
6 6 20 21 22 24 25 rings
6 8 10 11 13 14 15 rings

> <PUBCHEM_HEAVY_ATOM_COUNT>
25

> <PUBCHEM_ATOM_DEF_STEREO_COUNT>
0

> <PUBCHEM_ATOM_UDEF_STEREO_COUNT>
1

> <PUBCHEM_BOND_DEF_STEREO_COUNT>
0

> <PUBCHEM_BOND_UDEF_STEREO_COUNT>
0

> <PUBCHEM_ISOTOPIC_ATOM_COUNT>
0

> <PUBCHEM_COMPONENT_COUNT>
1

> <PUBCHEM_CACTVS_TAUTO_COUNT>
2

> <PUBCHEM_CONFORMER_ID>
02F85B3500000006

> <PUBCHEM_MMFF94_ENERGY>
79.7348

> <PUBCHEM_FEATURE_SELFOVERLAP>
45.672

> <PUBCHEM_SHAPE_FINGERPRINT>
10 15 12751240315721503415
10391435 84 18114461279308271906
11211813 128 18343865503500953814
11315181 36 18343585118617813377
11475781 23 12179848282400520122
11545043 162 17917426484749894848
11578821 258 8645041553532269094
11963148 33 18339919325672033734
12342043 65 16808446035266955649
12596602 18 16702023084220955586
12760667 363 18411984676514661193
12838863 1 18272642485537802735
13631057 29 18342174445088106817
13782708 43 18201721700649288334
13862211 1 18411138022232764870
13885169 86 10375862009065860955
14068700 675 18201718475049948817
14211702 104 18339932506757300974
14849402 71 16343131563177432368
14931854 50 17748817523792894811
15064986 266 18113345228352470469
15183329 4 16443338763029434971
15188451 53 18060414716409323313
15519825 34 15697706121506958991
16126227 98 8574710217837783477
17780758 139 18272376321828890665
17857418 61 18335143064017881944
18222031 100 18260263066539428120
19841028 212 18198899400446194239
20028762 73 18201999932509511806
20281389 69 11095879350525204522
20526848 3 8286204963431189039
20621476 66 9151170965419004078
20691028 202 8718820994597910191
21095123 145 17846779603665641350
21130935 74 18058166134265134330
21267235 1 18409175419266947017
21307412 95 17967810596524539951
21315759 148 16486701264430935804
21585483 132 17823966858655859074
21756936 100 10087631594538972813
22224240 67 12247681587113786613
22393880 68 17168420575622287603
23081809 10 18334587806725771820
23198884 109 13840263693574447281
23389318 12 18261115201621035462
23402655 69 7997967951449691704
23522609 53 18121534334837455860
23559900 14 18114744957682631649
23622692 118 18412825789614122713
25025965 108 18269257002798853426
3004659 81 17821726156398329281
3014063 24 18343015610117215503
312425 54 16486710090520579359
397830 11 16988266656210148274
4015057 19 17531828933863228256
406291 66 17844800581330866223
444769 64 18408608038152481841
465052 167 18412269428583112742
4938544 92 16558199202976963673
5104073 3 18272094876880242488
559249 180 18411419484804861857
5718773 13 18271239517232113799
6431902 208 18335145275657352059
6691757 9 17845382047035896073
7495541 125 18343301445171579360
96874 4 18271516585340536759

> <PUBCHEM_SHAPE_MULTIPOLES>
482.83
20.74
2.65
1.25
8.21
0.77
0.13
-17.53
-3.73
-1.23
0.14
-2.18
-0.28
-1.95

> <PUBCHEM_SHAPE_SELFOVERLAP>
1045.843

> <PUBCHEM_SHAPE_VOLUME>
260.4

> <PUBCHEM_COORDINATE_TYPE>
2
5
10

$$$$
