44273560
  -OEChem-10052120443D

 72 78  0     1  0  0  0  0  0999 V2000
    4.0164    1.0185   -0.6983 O   0  0  0  0  0  0  0  0  0  0  0  0
    3.4881    1.1891    2.1624 O   0  0  0  0  0  0  0  0  0  0  0  0
    5.2802   -0.8415    2.8073 O   0  0  0  0  0  0  0  0  0  0  0  0
    6.1134    1.3864    1.3588 O   0  0  0  0  0  0  0  0  0  0  0  0
    4.9307   -0.2891   -2.9597 O   0  0  0  0  0  0  0  0  0  0  0  0
    3.6885    3.0390   -0.0189 O   0  0  0  0  0  0  0  0  0  0  0  0
   -3.5153    2.6106   -0.5793 O   0  0  0  0  0  0  0  0  0  0  0  0
   -4.2524   -1.9713   -0.5633 O   0  0  0  0  0  0  0  0  0  0  0  0
    2.4531   -4.6131    0.0126 O   0  0  0  0  0  0  0  0  0  0  0  0
   -7.0032   -0.5748    2.4918 O   0  0  0  0  0  0  0  0  0  0  0  0
   -7.2223    2.8235   -0.0090 O   0  0  0  0  0  0  0  0  0  0  0  0
    1.6673    0.8355   -0.1430 N   0  0  0  0  0  0  0  0  0  0  0  0
    1.2246   -1.9110   -0.1313 N   0  0  0  0  0  0  0  0  0  0  0  0
   -4.2650    0.3816   -0.6019 N   0  0  0  0  0  0  0  0  0  0  0  0
   -5.6178    0.5902   -0.7119 N   0  0  0  0  0  0  0  0  0  0  0  0
    3.0437    0.2076   -0.0250 C   0  0  2  0  0  0  0  0  0  0  0  0
    3.4554   -0.0407    1.4361 C   0  0  1  0  0  0  0  0  0  0  0  0
    0.4135    0.3372   -0.2337 C   0  0  0  0  0  0  0  0  0  0  0  0
    4.8514   -0.6700    1.4606 C   0  0  1  0  0  0  0  0  0  0  0  0
    5.8677    0.1583    0.6680 C   0  0  1  0  0  0  0  0  0  0  0  0
   -0.7477    1.1740   -0.3390 C   0  0  0  0  0  0  0  0  0  0  0  0
    5.3493    0.4870   -0.7394 C   0  0  1  0  0  0  0  0  0  0  0  0
    1.4109    2.1977   -0.1857 C   0  0  0  0  0  0  0  0  0  0  0  0
    0.1908   -1.0447   -0.2280 C   0  0  0  0  0  0  0  0  0  0  0  0
    0.0004    2.4392   -0.3010 C   0  0  0  0  0  0  0  0  0  0  0  0
   -2.0645    0.7321   -0.4354 C   0  0  0  0  0  0  0  0  0  0  0  0
   -1.1746   -1.4750   -0.3286 C   0  0  0  0  0  0  0  0  0  0  0  0
   -2.2858   -0.6425   -0.4303 C   0  0  0  0  0  0  0  0  0  0  0  0
   -0.8619   -2.9109   -0.2795 C   0  0  0  0  0  0  0  0  0  0  0  0
    5.4411   -0.6940   -1.7032 C   0  0  0  0  0  0  0  0  0  0  0  0
    0.5532   -3.1239   -0.1638 C   0  0  0  0  0  0  0  0  0  0  0  0
    2.3385    3.2493   -0.1296 C   0  0  0  0  0  0  0  0  0  0  0  0
   -3.3498    1.4073   -0.5467 C   0  0  0  0  0  0  0  0  0  0  0  0
   -3.7181   -0.8805   -0.5387 C   0  0  0  0  0  0  0  0  0  0  0  0
   -0.4205    3.7899   -0.3567 C   0  0  0  0  0  0  0  0  0  0  0  0
    1.8706    4.5624   -0.1883 C   0  0  0  0  0  0  0  0  0  0  0  0
    0.5126    4.8308   -0.3001 C   0  0  0  0  0  0  0  0  0  0  0  0
   -1.6861   -4.0611   -0.3251 C   0  0  0  0  0  0  0  0  0  0  0  0
    1.1031   -4.4133   -0.0979 C   0  0  0  0  0  0  0  0  0  0  0  0
   -6.2173    0.7156    0.6099 C   0  0  0  0  0  0  0  0  0  0  0  0
   -1.1274   -5.3421   -0.2586 C   0  0  0  0  0  0  0  0  0  0  0  0
    0.2461   -5.5133   -0.1467 C   0  0  0  0  0  0  0  0  0  0  0  0
   -6.4701   -0.6811    1.1775 C   0  0  0  0  0  0  0  0  0  0  0  0
   -7.5105    1.5311    0.5125 C   0  0  0  0  0  0  0  0  0  0  0  0
    3.0249   -0.6545   -0.6772 H   0  0  0  0  0  0  0  0  0  0  0  0
    2.7366   -0.6844    1.9538 H   0  0  0  0  0  0  0  0  0  0  0  0
    4.7836   -1.6716    1.0191 H   0  0  0  0  0  0  0  0  0  0  0  0
    6.8285   -0.3670    0.6249 H   0  0  0  0  0  0  0  0  0  0  0  0
    5.9522    1.3016   -1.1599 H   0  0  0  0  0  0  0  0  0  0  0  0
    4.8636   -1.5589   -1.3659 H   0  0  0  0  0  0  0  0  0  0  0  0
    6.4833   -1.0046   -1.8300 H   0  0  0  0  0  0  0  0  0  0  0  0
    2.1862   -1.8384    0.1254 H   0  0  0  0  0  0  0  0  0  0  0  0
   -1.4730    4.0397   -0.4439 H   0  0  0  0  0  0  0  0  0  0  0  0
    3.7983    0.9874    3.0617 H   0  0  0  0  0  0  0  0  0  0  0  0
    6.1659   -1.2420    2.7835 H   0  0  0  0  0  0  0  0  0  0  0  0
    6.7947    1.8712    0.8625 H   0  0  0  0  0  0  0  0  0  0  0  0
    2.5675    5.3963   -0.1469 H   0  0  0  0  0  0  0  0  0  0  0  0
    0.1683    5.8606   -0.3443 H   0  0  0  0  0  0  0  0  0  0  0  0
   -2.7639   -3.9680   -0.4120 H   0  0  0  0  0  0  0  0  0  0  0  0
   -5.7477    1.4549   -1.2371 H   0  0  0  0  0  0  0  0  0  0  0  0
   -5.5556    1.2748    1.2870 H   0  0  0  0  0  0  0  0  0  0  0  0
    5.0082   -1.0501   -3.5600 H   0  0  0  0  0  0  0  0  0  0  0  0
   -1.7781   -6.2118   -0.2951 H   0  0  0  0  0  0  0  0  0  0  0  0
    0.6473   -6.5229   -0.0974 H   0  0  0  0  0  0  0  0  0  0  0  0
    4.1431    3.8984    0.0029 H   0  0  0  0  0  0  0  0  0  0  0  0
   -5.5508   -1.2558    1.2870 H   0  0  0  0  0  0  0  0  0  0  0  0
   -7.1757   -1.2474    0.5596 H   0  0  0  0  0  0  0  0  0  0  0  0
   -8.2390    1.0458   -0.1468 H   0  0  0  0  0  0  0  0  0  0  0  0
   -7.9673    1.6601    1.4991 H   0  0  0  0  0  0  0  0  0  0  0  0
    2.6270   -5.5695    0.0432 H   0  0  0  0  0  0  0  0  0  0  0  0
   -7.1596   -1.4798    2.8116 H   0  0  0  0  0  0  0  0  0  0  0  0
   -8.0647    3.3070   -0.0537 H   0  0  0  0  0  0  0  0  0  0  0  0
  1 16  1  0  0  0  0
  1 22  1  0  0  0  0
  2 17  1  0  0  0  0
  2 54  1  0  0  0  0
  3 19  1  0  0  0  0
  3 55  1  0  0  0  0
  4 20  1  0  0  0  0
  4 56  1  0  0  0  0
  5 30  1  0  0  0  0
  5 62  1  0  0  0  0
  6 32  1  0  0  0  0
  6 65  1  0  0  0  0
  7 33  2  0  0  0  0
  8 34  2  0  0  0  0
  9 39  1  0  0  0  0
  9 70  1  0  0  0  0
 10 43  1  0  0  0  0
 10 71  1  0  0  0  0
 11 44  1  0  0  0  0
 11 72  1  0  0  0  0
 12 16  1  0  0  0  0
 12 18  1  0  0  0  0
 12 23  1  0  0  0  0
 13 24  1  0  0  0  0
 13 31  1  0  0  0  0
 13 52  1  0  0  0  0
 14 15  1  0  0  0  0
 14 33  1  0  0  0  0
 14 34  1  0  0  0  0
 15 40  1  0  0  0  0
 15 60  1  0  0  0  0
 16 17  1  0  0  0  0
 16 45  1  0  0  0  0
 17 19  1  0  0  0  0
 17 46  1  0  0  0  0
 18 21  1  0  0  0  0
 18 24  2  0  0  0  0
 19 20  1  0  0  0  0
 19 47  1  0  0  0  0
 20 22  1  0  0  0  0
 20 48  1  0  0  0  0
 21 25  1  0  0  0  0
 21 26  2  0  0  0  0
 22 30  1  0  0  0  0
 22 49  1  0  0  0  0
 23 25  2  0  0  0  0
 23 32  1  0  0  0  0
 24 27  1  0  0  0  0
 25 35  1  0  0  0  0
 26 28  1  0  0  0  0
 26 33  1  0  0  0  0
 27 28  2  0  0  0  0
 27 29  1  0  0  0  0
 28 34  1  0  0  0  0
 29 31  2  0  0  0  0
 29 38  1  0  0  0  0
 30 50  1  0  0  0  0
 30 51  1  0  0  0  0
 31 39  1  0  0  0  0
 32 36  2  0  0  0  0
 35 37  2  0  0  0  0
 35 53  1  0  0  0  0
 36 37  1  0  0  0  0
 36 57  1  0  0  0  0
 37 58  1  0  0  0  0
 38 41  2  0  0  0  0
 38 59  1  0  0  0  0
 39 42  2  0  0  0  0
 40 43  1  0  0  0  0
 40 44  1  0  0  0  0
 40 61  1  0  0  0  0
 41 42  1  0  0  0  0
 41 63  1  0  0  0  0
 42 64  1  0  0  0  0
 43 66  1  0  0  0  0
 43 67  1  0  0  0  0
 44 68  1  0  0  0  0
 44 69  1  0  0  0  0
M  END
> <PUBCHEM_COMPOUND_CID>
44273560

> <PUBCHEM_CONFORMER_RMSD>
1

> <PUBCHEM_CONFORMER_DIVERSEORDER>
3
4
11
13
16
6
18
9
14
12
2
15
17
8
10
5
1
7

> <PUBCHEM_MMFF94_PARTIAL_CHARGES>
58
1 -0.56
10 -0.68
11 -0.68
12 -0.04
13 -0.05
14 -0.11
15 -0.64
16 0.54
17 0.28
18 -0.05
19 0.28
2 -0.68
20 0.28
21 -0.01
22 0.28
23 -0.15
24 -0.05
26 0.09
27 -0.01
28 0.09
3 -0.68
30 0.28
31 -0.15
32 0.08
33 0.54
34 0.54
35 -0.15
36 -0.15
37 -0.15
38 -0.15
39 0.08
4 -0.68
40 0.27
41 -0.15
42 -0.15
43 0.28
44 0.28
5 -0.68
52 0.27
53 0.15
54 0.4
55 0.4
56 0.4
57 0.15
58 0.15
59 0.15
6 -0.53
60 0.36
62 0.4
63 0.15
64 0.15
65 0.45
7 -0.57
70 0.45
71 0.4
72 0.4
8 -0.57
9 -0.53

> <PUBCHEM_EFFECTIVE_ROTOR_COUNT>
7.4

> <PUBCHEM_PHARMACOPHORE_FEATURES>
28
1 1 acceptor
1 10 acceptor
1 10 donor
1 11 acceptor
1 11 donor
1 12 cation
1 13 cation
1 13 donor
1 15 donor
1 2 acceptor
1 2 donor
1 3 acceptor
1 3 donor
1 4 acceptor
1 4 donor
1 5 acceptor
1 5 donor
1 6 donor
1 7 acceptor
1 8 acceptor
1 9 donor
5 12 18 21 23 25 rings
5 13 24 27 29 31 rings
5 14 26 28 33 34 rings
6 1 16 17 19 20 22 rings
6 18 21 24 26 27 28 rings
6 23 25 32 35 36 37 rings
6 29 31 38 39 41 42 rings

> <PUBCHEM_HEAVY_ATOM_COUNT>
44

> <PUBCHEM_ATOM_DEF_STEREO_COUNT>
0

> <PUBCHEM_ATOM_UDEF_STEREO_COUNT>
5

> <PUBCHEM_BOND_DEF_STEREO_COUNT>
0

> <PUBCHEM_BOND_UDEF_STEREO_COUNT>
0

> <PUBCHEM_ISOTOPIC_ATOM_COUNT>
0

> <PUBCHEM_COMPONENT_COUNT>
1

> <PUBCHEM_CACTVS_TAUTO_COUNT>
211

> <PUBCHEM_CONFORMER_ID>
02A38F9800000003

> <PUBCHEM_MMFF94_ENERGY>
175.2217

> <PUBCHEM_FEATURE_SELFOVERLAP>
142.63

> <PUBCHEM_SHAPE_FINGERPRINT>
10190108 129 18196678218952955777
102385 1 17834113430527650605
10290309 65 18264753403787550588
1100329 8 18266452281620763268
11135926 11 18337664218795677863
11445158 3 17894912979333262389
11719270 70 18410008806695559259
12058002 1 17486529050075946277
13140716 1 18267296723725522113
13617811 41 18335709291095089436
13726171 33 18050018971945971908
14020679 6 17894909684866668195
14028597 1 17775014457850188361
140371 6 17329140270204471015
14394314 77 18410565206618606664
14725015 67 18125724492098993774
14790565 3 18266745864854112493
15274700 259 17532916227237463229
15297060 5 18272083929208915458
15320294 125 17969759953104407114
15320467 1 18410288125055400982
15324884 4 17773047564940587598
15815584 197 18268994198344457727
15927050 60 17904769130213652532
15950262 2 15840972490241490115
16112460 7 18196942282268924177
16728300 4 17462257189633819586
20028762 73 18271800280894259511
21033648 29 18058710524862621024
21133410 171 16685639477127736350
21781051 124 18115324322890431346
21814621 53 16056885744967874095
22223350 30 17984414411297878209
22311459 1 18410570665970439381
23559900 14 18200035187251376660
24771293 8 18200861994094077272
3178227 256 18337121128613037281
3383291 50 18411419531105237195
4093350 32 16988563455118909855
5265222 85 18336837492830115428
6679774 75 18113906004082152619

> <PUBCHEM_SHAPE_MULTIPOLES>
821.01
14.68
6.82
1.45
15.33
5.37
0.51
-6.39
4.79
-0.44
-1
-1.73
0.14
0.14

> <PUBCHEM_SHAPE_SELFOVERLAP>
1855.373

> <PUBCHEM_SHAPE_VOLUME>
426.9

> <PUBCHEM_COORDINATE_TYPE>
2
5
10

$$$$
