49830329
  -OEChem-10052120443D

 56 59  0     1  0  0  0  0  0999 V2000
   -6.2621   -0.4072   -0.6581 Cl  0  0  0  0  0  0  0  0  0  0  0  0
    2.7522    0.7306   -1.5232 O   0  0  0  0  0  0  0  0  0  0  0  0
    2.0442    2.1908    0.1380 N   0  0  0  0  0  0  0  0  0  0  0  0
   -2.3784    2.5072    0.0672 N   0  0  0  0  0  0  0  0  0  0  0  0
   -1.9622    0.2313    0.2602 N   0  0  0  0  0  0  0  0  0  0  0  0
   -4.1635    1.0604   -0.2633 N   0  0  0  0  0  0  0  0  0  0  0  0
    4.5576   -0.3690    0.2374 N   0  0  0  0  0  0  0  0  0  0  0  0
   -0.6263   -3.8456    1.4689 N   0  0  0  0  0  0  0  0  0  0  0  0
    1.3377   -4.1866    0.1163 N   0  0  0  0  0  0  0  0  0  0  0  0
    1.3049    3.0986   -0.7091 C   0  0  1  0  0  0  0  0  0  0  0  0
   -1.0004    2.8425    0.3587 C   0  0  1  0  0  0  0  0  0  0  0  0
   -0.1436    2.6329   -0.8956 C   0  0  0  0  0  0  0  0  0  0  0  0
    1.3730    4.5300   -0.1690 C   0  0  0  0  0  0  0  0  0  0  0  0
   -0.9248    4.2879    0.8529 C   0  0  0  0  0  0  0  0  0  0  0  0
    0.5181    4.7279    1.0823 C   0  0  0  0  0  0  0  0  0  0  0  0
    2.7109    1.0745   -0.3440 C   0  0  0  0  0  0  0  0  0  0  0  0
   -2.8551    1.2100    0.0185 C   0  0  0  0  0  0  0  0  0  0  0  0
    3.3725    0.2885    0.7692 C   0  0  0  0  0  0  0  0  0  0  0  0
   -2.4617   -1.0210    0.2069 C   0  0  0  0  0  0  0  0  0  0  0  0
   -1.5252   -2.0779    0.4598 C   0  0  0  0  0  0  0  0  0  0  0  0
   -4.5955   -0.2172   -0.3004 C   0  0  0  0  0  0  0  0  0  0  0  0
   -3.7823   -1.3084   -0.0716 C   0  0  0  0  0  0  0  0  0  0  0  0
    5.6608    0.5846    0.0996 C   0  0  0  0  0  0  0  0  0  0  0  0
    4.9590   -1.4860    1.0959 C   0  0  0  0  0  0  0  0  0  0  0  0
   -0.3299   -2.4215   -0.2256 C   0  0  0  0  0  0  0  0  0  0  0  0
   -1.6820   -2.9716    1.4972 C   0  0  0  0  0  0  0  0  0  0  0  0
    0.2059   -3.5272    0.4282 C   0  0  0  0  0  0  0  0  0  0  0  0
    0.3724   -1.9240   -1.3355 C   0  0  0  0  0  0  0  0  0  0  0  0
    1.5516   -2.5699   -1.7023 C   0  0  0  0  0  0  0  0  0  0  0  0
    1.9722   -3.6647   -0.9594 C   0  0  0  0  0  0  0  0  0  0  0  0
    1.7914    3.0855   -1.6926 H   0  0  0  0  0  0  0  0  0  0  0  0
   -0.6245    2.2038    1.1693 H   0  0  0  0  0  0  0  0  0  0  0  0
   -0.5856    3.1975   -1.7284 H   0  0  0  0  0  0  0  0  0  0  0  0
   -0.1588    1.5804   -1.2031 H   0  0  0  0  0  0  0  0  0  0  0  0
    1.0203    5.2197   -0.9466 H   0  0  0  0  0  0  0  0  0  0  0  0
    2.4111    4.8058    0.0522 H   0  0  0  0  0  0  0  0  0  0  0  0
   -1.3946    4.9613    0.1235 H   0  0  0  0  0  0  0  0  0  0  0  0
   -1.4938    4.3969    1.7845 H   0  0  0  0  0  0  0  0  0  0  0  0
    0.9444    4.1672    1.9224 H   0  0  0  0  0  0  0  0  0  0  0  0
    0.5353    5.7852    1.3708 H   0  0  0  0  0  0  0  0  0  0  0  0
    2.0120    2.3439    1.1415 H   0  0  0  0  0  0  0  0  0  0  0  0
   -3.0334    3.2462   -0.1613 H   0  0  0  0  0  0  0  0  0  0  0  0
    3.6034    0.9223    1.6338 H   0  0  0  0  0  0  0  0  0  0  0  0
    2.6244   -0.4482    1.0902 H   0  0  0  0  0  0  0  0  0  0  0  0
   -4.1627   -2.3226   -0.1138 H   0  0  0  0  0  0  0  0  0  0  0  0
    5.9561    1.0186    1.0620 H   0  0  0  0  0  0  0  0  0  0  0  0
    6.5376    0.0916   -0.3356 H   0  0  0  0  0  0  0  0  0  0  0  0
    5.3991    1.4024   -0.5805 H   0  0  0  0  0  0  0  0  0  0  0  0
    5.8323   -1.9985    0.6773 H   0  0  0  0  0  0  0  0  0  0  0  0
    5.2041   -1.1575    2.1124 H   0  0  0  0  0  0  0  0  0  0  0  0
    4.1589   -2.2320    1.1572 H   0  0  0  0  0  0  0  0  0  0  0  0
   -2.4452   -3.0684    2.2578 H   0  0  0  0  0  0  0  0  0  0  0  0
   -0.4830   -4.6082    2.1162 H   0  0  0  0  0  0  0  0  0  0  0  0
    0.0169   -1.0649   -1.8952 H   0  0  0  0  0  0  0  0  0  0  0  0
    2.1300   -2.2216   -2.5513 H   0  0  0  0  0  0  0  0  0  0  0  0
    2.8905   -4.1790   -1.2303 H   0  0  0  0  0  0  0  0  0  0  0  0
  1 21  1  0  0  0  0
  2 16  2  0  0  0  0
  3 10  1  0  0  0  0
  3 16  1  0  0  0  0
  3 41  1  0  0  0  0
  4 11  1  0  0  0  0
  4 17  1  0  0  0  0
  4 42  1  0  0  0  0
  5 17  2  0  0  0  0
  5 19  1  0  0  0  0
  6 17  1  0  0  0  0
  6 21  2  0  0  0  0
  7 18  1  0  0  0  0
  7 23  1  0  0  0  0
  7 24  1  0  0  0  0
  8 26  1  0  0  0  0
  8 27  1  0  0  0  0
  8 53  1  0  0  0  0
  9 27  1  0  0  0  0
  9 30  2  0  0  0  0
 10 12  1  0  0  0  0
 10 13  1  0  0  0  0
 10 31  1  0  0  0  0
 11 12  1  0  0  0  0
 11 14  1  0  0  0  0
 11 32  1  0  0  0  0
 12 33  1  0  0  0  0
 12 34  1  0  0  0  0
 13 15  1  0  0  0  0
 13 35  1  0  0  0  0
 13 36  1  0  0  0  0
 14 15  1  0  0  0  0
 14 37  1  0  0  0  0
 14 38  1  0  0  0  0
 15 39  1  0  0  0  0
 15 40  1  0  0  0  0
 16 18  1  0  0  0  0
 18 43  1  0  0  0  0
 18 44  1  0  0  0  0
 19 20  1  0  0  0  0
 19 22  2  0  0  0  0
 20 25  1  0  0  0  0
 20 26  2  0  0  0  0
 21 22  1  0  0  0  0
 22 45  1  0  0  0  0
 23 46  1  0  0  0  0
 23 47  1  0  0  0  0
 23 48  1  0  0  0  0
 24 49  1  0  0  0  0
 24 50  1  0  0  0  0
 24 51  1  0  0  0  0
 25 27  2  0  0  0  0
 25 28  1  0  0  0  0
 26 52  1  0  0  0  0
 28 29  2  0  0  0  0
 28 54  1  0  0  0  0
 29 30  1  0  0  0  0
 29 55  1  0  0  0  0
 30 56  1  0  0  0  0
M  END
> <PUBCHEM_COMPOUND_CID>
49830329

> <PUBCHEM_CONFORMER_RMSD>
1.2

> <PUBCHEM_CONFORMER_DIVERSEORDER>
1
75
188
168
194
209
112
174
160
90
73
101
197
14
131
99
142
26
100
118
79
81
42
31
211
167
214
39
97
184
89
35
19
200
38
98
190
132
67
53
204
157
129
147
181
155
41
93
127
141
70
169
107
7
205
85
105
154
62
65
52
86
218
109
36
139
3
59
140
9
178
21
170
29
68
177
175
95
201
55
145
115
119
106
130
171
50
84
61
110
16
94
151
185
134
87
124
23
74
121
176
163
122
202
27
158
183
8
111
164
22
30
64
58
37
54
125
43
203
193
210
117
77
91
212
120
146
173
113
180
143
208
153
149
195
24
28
216
57
186
136
166
116
5
88
51
144
32
83
82
47
172
196
72
187
34
207
12
206
137
92
148
2
104
10
48
6
18
49
128
56
11
60
150
159
179
192
78
63
102
135
152
162
165
71
66
126
114
45
217
133
198
161
46
33
215
20
199
13
80
123
17
156
189
76
103
138
108
182
96
44
4
213
191
40
69
15
25

> <PUBCHEM_MMFF94_PARTIAL_CHARGES>
33
1 -0.18
10 0.3
11 0.37
16 0.57
17 0.72
18 0.33
19 0.36
2 -0.57
20 -0.05
21 0.49
22 -0.15
23 0.27
24 0.27
26 -0.3
27 0.11
28 -0.15
29 -0.15
3 -0.73
30 0.16
4 -0.87
41 0.37
42 0.4
45 0.15
5 -0.62
52 0.15
53 0.27
54 0.15
55 0.15
56 0.15
6 -0.62
7 -0.81
8 0.03
9 -0.57

> <PUBCHEM_EFFECTIVE_ROTOR_COUNT>
8.2

> <PUBCHEM_PHARMACOPHORE_FEATURES>
13
1 2 acceptor
1 3 donor
1 4 donor
1 6 acceptor
1 7 cation
1 8 cation
1 8 donor
1 9 acceptor
4 4 5 6 17 cation
5 8 20 25 26 27 rings
6 10 11 12 13 14 15 rings
6 5 6 17 19 21 22 rings
6 9 25 27 28 29 30 rings

> <PUBCHEM_HEAVY_ATOM_COUNT>
30

> <PUBCHEM_ATOM_DEF_STEREO_COUNT>
0

> <PUBCHEM_ATOM_UDEF_STEREO_COUNT>
2

> <PUBCHEM_BOND_DEF_STEREO_COUNT>
0

> <PUBCHEM_BOND_UDEF_STEREO_COUNT>
0

> <PUBCHEM_ISOTOPIC_ATOM_COUNT>
0

> <PUBCHEM_COMPONENT_COUNT>
1

> <PUBCHEM_CACTVS_TAUTO_COUNT>
32

> <PUBCHEM_CONFORMER_ID>
02F859B900000001

> <PUBCHEM_MMFF94_ENERGY>
63.6197

> <PUBCHEM_FEATURE_SELFOVERLAP>
66.085

> <PUBCHEM_SHAPE_FINGERPRINT>
10939801 23 18335972126768050474
1100329 8 18338232799018642011
11513181 2 17554594102909338806
11578080 2 17315900076090259415
12553582 1 18267891469454204748
12788726 201 18411145714661870140
12838863 1 18338781373537877263
13122387 1 17256247047112869280
13140716 1 18195256735259785025
13402501 40 18410855460328751910
14251757 5 18264224650411115780
144659 178 18265346002026953636
14725015 67 18410003364877381009
15403338 16 17386828556900401282
15927050 60 17836369246162611885
15961568 22 18340482262286112014
15968369 153 18129085755111229974
16112460 7 18199203930074172801
16664035 1 18412258454604977209
17974551 9 17752485631694983274
19319366 153 17749102336064176642
19930381 70 18410293588670435205
20764821 26 17976547104700091876
20905425 154 18055638317338389668
22113638 7 18341043129121950462
23558518 356 17978520732282780917
23559900 14 18267859673906316665
238918 7 18200301118799607874
3027735 51 18339077069288260033
3298306 158 18409443726638826061
392239 28 18049162168134141834
463206 1 18412541042082952679
5171179 24 17768533790235161470
57527585 103 17679617500076528529
6004065 56 18270387408394044543
6433294 58 17834398204018333952
653340 110 17980193094211624800

> <PUBCHEM_SHAPE_MULTIPOLES>
578.52
8.84
7.12
1.22
1.6
3.08
0.08
-0.96
0.14
-2.29
-1.23
-0.39
-0.63
0.36

> <PUBCHEM_SHAPE_SELFOVERLAP>
1234.131

> <PUBCHEM_SHAPE_VOLUME>
323.1

> <PUBCHEM_COORDINATE_TYPE>
2
5
10

$$$$
