49830373
  -OEChem-10052115193D

 59 63  0     0  0  0  0  0  0999 V2000
   -3.8194    0.1206    1.7689 S   0  0  0  0  0  0  0  0  0  0  0  0
    2.5038   -2.9269    1.2390 F   0  0  0  0  0  0  0  0  0  0  0  0
   -8.5129    3.2169    0.6013 O   0  0  0  0  0  0  0  0  0  0  0  0
    4.7421    1.3836   -0.1671 O   0  0  0  0  0  0  0  0  0  0  0  0
   -8.2540    0.4665   -0.1620 N   0  0  0  0  0  0  0  0  0  0  0  0
   -3.3390   -1.1834   -2.4892 N   0  0  0  0  0  0  0  0  0  0  0  0
   -8.2219   -0.4547    0.8161 N   0  0  0  0  0  0  0  0  0  0  0  0
   -0.9985   -1.2374   -2.1627 N   0  0  0  0  0  0  0  0  0  0  0  0
    4.0775   -0.7603    0.5048 N   0  0  0  0  0  0  0  0  0  0  0  0
    6.3230   -0.2931    0.2311 N   0  0  0  0  0  0  0  0  0  0  0  0
   -2.4804   -0.5912   -0.3249 C   0  0  0  0  0  0  0  0  0  0  0  0
   -3.7882   -0.3749    0.1184 C   0  0  0  0  0  0  0  0  0  0  0  0
   -1.5300   -0.3393    0.7203 C   0  0  0  0  0  0  0  0  0  0  0  0
   -4.8843   -0.5592   -0.7328 C   0  0  0  0  0  0  0  0  0  0  0  0
   -6.2301   -0.3435   -0.2964 C   0  0  0  0  0  0  0  0  0  0  0  0
   -0.0928   -0.4481    0.6651 C   0  0  0  0  0  0  0  0  0  0  0  0
   -2.2915   -1.0009   -1.6544 C   0  0  0  0  0  0  0  0  0  0  0  0
   -2.1211    0.0508    1.8986 C   0  0  0  0  0  0  0  0  0  0  0  0
   -4.5834   -0.9638   -2.0216 C   0  0  0  0  0  0  0  0  0  0  0  0
   -7.0859    0.5723   -0.8581 C   0  0  0  0  0  0  0  0  0  0  0  0
   -6.9831   -0.9462    0.7290 C   0  0  0  0  0  0  0  0  0  0  0  0
    0.5280   -1.6557    0.9841 C   0  0  0  0  0  0  0  0  0  0  0  0
    0.6764    0.6546    0.2931 C   0  0  0  0  0  0  0  0  0  0  0  0
   -9.4572    1.2311   -0.3869 C   0  0  0  0  0  0  0  0  0  0  0  0
    2.6871   -0.6584    0.5590 C   0  0  0  0  0  0  0  0  0  0  0  0
    1.9179   -1.7610    0.9309 C   0  0  0  0  0  0  0  0  0  0  0  0
    2.0663    0.5493    0.2403 C   0  0  0  0  0  0  0  0  0  0  0  0
   -9.6362    2.3457    0.6383 C   0  0  0  0  0  0  0  0  0  0  0  0
    5.0237    0.2336    0.1547 C   0  0  0  0  0  0  0  0  0  0  0  0
    7.5466    0.3649   -0.0369 C   0  0  0  0  0  0  0  0  0  0  0  0
    8.7525   -0.3241    0.0931 C   0  0  0  0  0  0  0  0  0  0  0  0
    9.9586    0.3250   -0.1709 C   0  0  0  0  0  0  0  0  0  0  0  0
    7.5467    1.7029   -0.4309 C   0  0  0  0  0  0  0  0  0  0  0  0
    9.9586    1.6631   -0.5649 C   0  0  0  0  0  0  0  0  0  0  0  0
    8.7528    2.3521   -0.6951 C   0  0  0  0  0  0  0  0  0  0  0  0
   11.2481   -0.4109   -0.0311 C   0  0  0  0  0  0  0  0  0  0  0  0
   -1.6444    0.3010    2.8372 H   0  0  0  0  0  0  0  0  0  0  0  0
   -5.3672   -1.1365   -2.7547 H   0  0  0  0  0  0  0  0  0  0  0  0
   -6.9669    1.2755   -1.6720 H   0  0  0  0  0  0  0  0  0  0  0  0
   -6.6874   -1.7260    1.4169 H   0  0  0  0  0  0  0  0  0  0  0  0
   -0.0566   -2.5252    1.2750 H   0  0  0  0  0  0  0  0  0  0  0  0
    0.2068    1.6026    0.0405 H   0  0  0  0  0  0  0  0  0  0  0  0
  -10.3058    0.5391   -0.3654 H   0  0  0  0  0  0  0  0  0  0  0  0
   -9.3888    1.6552   -1.3954 H   0  0  0  0  0  0  0  0  0  0  0  0
    2.5887    1.4472   -0.0568 H   0  0  0  0  0  0  0  0  0  0  0  0
   -0.1611   -1.1282   -1.6171 H   0  0  0  0  0  0  0  0  0  0  0  0
   -0.9178   -1.5315   -3.1275 H   0  0  0  0  0  0  0  0  0  0  0  0
  -10.5367    2.9252    0.4131 H   0  0  0  0  0  0  0  0  0  0  0  0
   -9.7219    1.9384    1.6511 H   0  0  0  0  0  0  0  0  0  0  0  0
    4.4562   -1.6717    0.7506 H   0  0  0  0  0  0  0  0  0  0  0  0
    6.4048   -1.2667    0.5129 H   0  0  0  0  0  0  0  0  0  0  0  0
    8.7537   -1.3670    0.4022 H   0  0  0  0  0  0  0  0  0  0  0  0
   -8.6688    3.9111    1.2641 H   0  0  0  0  0  0  0  0  0  0  0  0
    6.6578    2.3046   -0.5542 H   0  0  0  0  0  0  0  0  0  0  0  0
   10.8916    2.1807   -0.7716 H   0  0  0  0  0  0  0  0  0  0  0  0
    8.7543    3.3942   -1.0017 H   0  0  0  0  0  0  0  0  0  0  0  0
   12.0113   -0.0050   -0.7038 H   0  0  0  0  0  0  0  0  0  0  0  0
   11.1273   -1.4693   -0.2859 H   0  0  0  0  0  0  0  0  0  0  0  0
   11.6134   -0.3364    0.9979 H   0  0  0  0  0  0  0  0  0  0  0  0
  1 12  1  0  0  0  0
  1 18  1  0  0  0  0
  2 26  1  0  0  0  0
  3 28  1  0  0  0  0
  3 53  1  0  0  0  0
  4 29  2  0  0  0  0
  5  7  1  0  0  0  0
  5 20  1  0  0  0  0
  5 24  1  0  0  0  0
  6 17  2  0  0  0  0
  6 19  1  0  0  0  0
  7 21  2  0  0  0  0
  8 17  1  0  0  0  0
  8 46  1  0  0  0  0
  8 47  1  0  0  0  0
  9 25  1  0  0  0  0
  9 29  1  0  0  0  0
  9 50  1  0  0  0  0
 10 29  1  0  0  0  0
 10 30  1  0  0  0  0
 10 51  1  0  0  0  0
 11 12  2  0  0  0  0
 11 13  1  0  0  0  0
 11 17  1  0  0  0  0
 12 14  1  0  0  0  0
 13 16  1  0  0  0  0
 13 18  2  0  0  0  0
 14 15  1  0  0  0  0
 14 19  2  0  0  0  0
 15 20  2  0  0  0  0
 15 21  1  0  0  0  0
 16 22  2  0  0  0  0
 16 23  1  0  0  0  0
 18 37  1  0  0  0  0
 19 38  1  0  0  0  0
 20 39  1  0  0  0  0
 21 40  1  0  0  0  0
 22 26  1  0  0  0  0
 22 41  1  0  0  0  0
 23 27  2  0  0  0  0
 23 42  1  0  0  0  0
 24 28  1  0  0  0  0
 24 43  1  0  0  0  0
 24 44  1  0  0  0  0
 25 26  2  0  0  0  0
 25 27  1  0  0  0  0
 27 45  1  0  0  0  0
 28 48  1  0  0  0  0
 28 49  1  0  0  0  0
 30 31  1  0  0  0  0
 30 33  2  0  0  0  0
 31 32  2  0  0  0  0
 31 52  1  0  0  0  0
 32 34  1  0  0  0  0
 32 36  1  0  0  0  0
 33 35  1  0  0  0  0
 33 54  1  0  0  0  0
 34 35  2  0  0  0  0
 34 55  1  0  0  0  0
 35 56  1  0  0  0  0
 36 57  1  0  0  0  0
 36 58  1  0  0  0  0
 36 59  1  0  0  0  0
M  END
> <PUBCHEM_COMPOUND_CID>
49830373

> <PUBCHEM_CONFORMER_RMSD>
1

> <PUBCHEM_CONFORMER_DIVERSEORDER>
1
58
12
81
88
22
90
67
56
26
45
101
87
30
53
25
60
47
78
100
32
80
50
24
108
77
42
49
82
48
65
97
64
93
46
103
18
66
38
99
74
57
13
94
29
61
107
86
9
52
19
105
59
17
15
91
36
110
69
8
98
27
83
79
72
102
40
70
5
85
76
44
20
96
89
62
33
75
14
34
55
104
63
16
71
51
109
95
41
10
4
37
39
106
68
43
35
54
28
3
21
73
84
6
23
92
7
31
11
2

> <PUBCHEM_MMFF94_PARTIAL_CHARGES>
51
1 -0.08
10 -0.55
12 0.04
13 -0.05
14 0.05
15 -0.05
16 0.05
17 0.41
18 -0.11
19 0.16
2 -0.19
20 -0.3
21 0.14
22 -0.15
23 -0.15
24 0.26
25 0.12
26 0.19
27 -0.15
28 0.28
29 0.69
3 -0.68
30 0.12
31 -0.15
32 -0.14
33 -0.15
34 -0.15
35 -0.15
36 0.14
37 0.15
38 0.15
39 0.15
4 -0.57
40 0.15
41 0.15
42 0.15
45 0.15
46 0.4
47 0.4
5 0.31
50 0.37
51 0.37
52 0.15
53 0.4
54 0.15
55 0.15
56 0.15
6 -0.62
7 -0.71
8 -0.9
9 -0.55

> <PUBCHEM_EFFECTIVE_ROTOR_COUNT>
8

> <PUBCHEM_PHARMACOPHORE_FEATURES>
13
1 10 donor
1 3 acceptor
1 3 donor
1 4 acceptor
1 7 acceptor
1 8 donor
1 9 donor
3 6 8 17 cation
5 1 11 12 13 18 rings
5 5 7 15 20 21 rings
6 16 22 23 25 26 27 rings
6 30 31 32 33 34 35 rings
6 6 11 12 14 17 19 rings

> <PUBCHEM_HEAVY_ATOM_COUNT>
36

> <PUBCHEM_ATOM_DEF_STEREO_COUNT>
0

> <PUBCHEM_ATOM_UDEF_STEREO_COUNT>
0

> <PUBCHEM_BOND_DEF_STEREO_COUNT>
0

> <PUBCHEM_BOND_UDEF_STEREO_COUNT>
0

> <PUBCHEM_ISOTOPIC_ATOM_COUNT>
0

> <PUBCHEM_COMPONENT_COUNT>
1

> <PUBCHEM_CACTVS_TAUTO_COUNT>
6

> <PUBCHEM_CONFORMER_ID>
02F859E500000001

> <PUBCHEM_MMFF94_ENERGY>
102.5224

> <PUBCHEM_FEATURE_SELFOVERLAP>
66.087

> <PUBCHEM_SHAPE_FINGERPRINT>
10 15 16370719349284482194
10165383 225 17603864507561053635
10190206 1 16702028535383520609
106641 1 11169911684911226410
10674148 151 16558749031573673474
11135609 99 8213847185897939185
11456790 92 15285363912014616861
12013929 94 18337392751626451963
12144603 126 18413106147545323970
12202916 173 12247685989144334252
12522641 33 18131074831854728910
12592606 108 10807934864344410168
12643181 29 15697997470022580735
12664476 115 16877659085122868660
14040221 8 16415206680418248632
14118638 360 17060066904408469362
14251764 46 18410575093253013514
15061470 23 18411698795113060016
15183329 4 17632299004190757166
15198563 99 15984832501599800049
15247644 1 12895071829428934469
15392192 104 11963386341919884672
15510794 2 17095243618966265154
1754911 235 18272369780266384352
20105231 36 17489308637347396335
20156587 128 17846505777719710190
20501277 279 16877660154421869429
20505436 4 18410847776564674966
20609170 92 17346044355697309549
20721686 146 18268427937842228381
21102433 48 8646768880970192737
21360443 120 17917714595282662622
24771293 8 16877660159001835959
249057 3 17060057086139338216
3092352 35 18411697707832336391
335352 9 16845851296178858351
4017518 198 14979955878771685805
44280117 145 17678186103141039699
4760202 170 17632288034644668568
5028188 123 18060133288360800686
57303763 39 10737584821172401760
58902169 19 18129940204621488908
59521270 166 17561367253660867297
59521660 218 18131072572132381631
59682541 35 14923944552554167245
6201320 82 17631181776071806417
6691757 9 16343713161931924183
6698420 124 18261674874023877498
9663363 56 12535630466961708858
9953998 17 17022904575399533547
9962374 69 10591753277885169528

> <PUBCHEM_SHAPE_MULTIPOLES>
695.81
38.3
2
1.52
44.78
0.86
-0.52
23.17
-3.11
-0.94
0.21
-2.35
-0.56
-2.24

> <PUBCHEM_SHAPE_SELFOVERLAP>
1529.106

> <PUBCHEM_SHAPE_VOLUME>
381.7

> <PUBCHEM_COORDINATE_TYPE>
2
5
10

$$$$
