52945630
  -OEChem-10052115163D

 45 47  0     0  0  0  0  0  0999 V2000
    3.7392    0.4025    1.3833 O   0  0  0  0  0  0  0  0  0  0  0  0
    4.7295   -0.0030   -1.1814 O   0  0  0  0  0  0  0  0  0  0  0  0
   -2.7154    1.0259   -0.1236 N   0  0  0  0  0  0  0  0  0  0  0  0
   -1.4359    1.3566   -0.3789 N   0  0  0  0  0  0  0  0  0  0  0  0
   -4.0560   -0.9234    0.3913 N   0  0  0  0  0  0  0  0  0  0  0  0
   -2.7014   -2.9498    0.4880 N   0  0  0  0  0  0  0  0  0  0  0  0
   -0.3445   -2.9450    0.1116 N   0  0  0  0  0  0  0  0  0  0  0  0
   -3.7300    2.0530   -0.1243 C   0  0  0  0  0  0  0  0  0  0  0  0
   -2.8982   -0.3045    0.1110 C   0  0  0  0  0  0  0  0  0  0  0  0
   -1.6477   -0.8870    0.0013 C   0  0  0  0  0  0  0  0  0  0  0  0
   -0.7907    0.1875   -0.3013 C   0  0  0  0  0  0  0  0  0  0  0  0
    0.6322    0.1385   -0.5248 C   0  0  0  0  0  0  0  0  0  0  0  0
   -3.4740    3.0981    0.9642 C   0  0  0  0  0  0  0  0  0  0  0  0
   -3.8584    2.7166   -1.4977 C   0  0  0  0  0  0  0  0  0  0  0  0
   -1.5705   -2.2614    0.2012 C   0  0  0  0  0  0  0  0  0  0  0  0
    1.5122    0.2951    0.5460 C   0  0  0  0  0  0  0  0  0  0  0  0
    1.1294   -0.0648   -1.8121 C   0  0  0  0  0  0  0  0  0  0  0  0
    2.8894    0.2482    0.3298 C   0  0  0  0  0  0  0  0  0  0  0  0
    3.3866    0.0451   -0.9576 C   0  0  0  0  0  0  0  0  0  0  0  0
    2.5066   -0.1113   -2.0284 C   0  0  0  0  0  0  0  0  0  0  0  0
   -3.8574   -2.2481    0.5642 C   0  0  0  0  0  0  0  0  0  0  0  0
    3.1501    0.6061    2.6663 C   0  0  0  0  0  0  0  0  0  0  0  0
    4.2497    0.7392    3.6982 C   0  0  0  0  0  0  0  0  0  0  0  0
    5.1550   -0.2143   -2.5264 C   0  0  0  0  0  0  0  0  0  0  0  0
   -4.6871    1.5671    0.1004 H   0  0  0  0  0  0  0  0  0  0  0  0
   -4.2955    3.8211    1.0067 H   0  0  0  0  0  0  0  0  0  0  0  0
   -3.3908    2.6235    1.9483 H   0  0  0  0  0  0  0  0  0  0  0  0
   -2.5467    3.6530    0.7833 H   0  0  0  0  0  0  0  0  0  0  0  0
   -4.0497    1.9689   -2.2754 H   0  0  0  0  0  0  0  0  0  0  0  0
   -4.6882    3.4313   -1.5055 H   0  0  0  0  0  0  0  0  0  0  0  0
   -2.9463    3.2575   -1.7735 H   0  0  0  0  0  0  0  0  0  0  0  0
    1.0673    0.4511    1.5237 H   0  0  0  0  0  0  0  0  0  0  0  0
    0.4557   -0.1889   -2.6569 H   0  0  0  0  0  0  0  0  0  0  0  0
    2.8206   -0.2725   -3.0539 H   0  0  0  0  0  0  0  0  0  0  0  0
   -4.7432   -2.8299    0.7956 H   0  0  0  0  0  0  0  0  0  0  0  0
   -0.3329   -3.9445    0.2644 H   0  0  0  0  0  0  0  0  0  0  0  0
    0.5144   -2.4589   -0.0998 H   0  0  0  0  0  0  0  0  0  0  0  0
    2.5310   -0.2543    2.9481 H   0  0  0  0  0  0  0  0  0  0  0  0
    2.5626    1.5321    2.6781 H   0  0  0  0  0  0  0  0  0  0  0  0
    4.8750   -0.1597    3.7138 H   0  0  0  0  0  0  0  0  0  0  0  0
    4.9083    1.5794    3.4538 H   0  0  0  0  0  0  0  0  0  0  0  0
    3.8332    0.8966    4.6971 H   0  0  0  0  0  0  0  0  0  0  0  0
    4.8306   -1.1901   -2.9037 H   0  0  0  0  0  0  0  0  0  0  0  0
    4.8485    0.6089   -3.1808 H   0  0  0  0  0  0  0  0  0  0  0  0
    6.2499   -0.2242   -2.5201 H   0  0  0  0  0  0  0  0  0  0  0  0
  1 18  1  0  0  0  0
  1 22  1  0  0  0  0
  2 19  1  0  0  0  0
  2 24  1  0  0  0  0
  3  4  1  0  0  0  0
  3  8  1  0  0  0  0
  3  9  1  0  0  0  0
  4 11  2  0  0  0  0
  5  9  2  0  0  0  0
  5 21  1  0  0  0  0
  6 15  1  0  0  0  0
  6 21  2  0  0  0  0
  7 15  1  0  0  0  0
  7 36  1  0  0  0  0
  7 37  1  0  0  0  0
  8 13  1  0  0  0  0
  8 14  1  0  0  0  0
  8 25  1  0  0  0  0
  9 10  1  0  0  0  0
 10 11  1  0  0  0  0
 10 15  2  0  0  0  0
 11 12  1  0  0  0  0
 12 16  2  0  0  0  0
 12 17  1  0  0  0  0
 13 26  1  0  0  0  0
 13 27  1  0  0  0  0
 13 28  1  0  0  0  0
 14 29  1  0  0  0  0
 14 30  1  0  0  0  0
 14 31  1  0  0  0  0
 16 18  1  0  0  0  0
 16 32  1  0  0  0  0
 17 20  2  0  0  0  0
 17 33  1  0  0  0  0
 18 19  2  0  0  0  0
 19 20  1  0  0  0  0
 20 34  1  0  0  0  0
 21 35  1  0  0  0  0
 22 23  1  0  0  0  0
 22 38  1  0  0  0  0
 22 39  1  0  0  0  0
 23 40  1  0  0  0  0
 23 41  1  0  0  0  0
 23 42  1  0  0  0  0
 24 43  1  0  0  0  0
 24 44  1  0  0  0  0
 24 45  1  0  0  0  0
M  END
> <PUBCHEM_COMPOUND_CID>
52945630

> <PUBCHEM_CONFORMER_RMSD>
0.8

> <PUBCHEM_CONFORMER_DIVERSEORDER>
2
15
13
7
4
9
1
6
10
12
14
3
5
8
11

> <PUBCHEM_MMFF94_PARTIAL_CHARGES>
26
1 -0.36
11 0.23
12 0.05
15 0.41
16 -0.15
17 -0.15
18 0.08
19 0.08
2 -0.36
20 -0.15
21 0.47
22 0.28
24 0.28
3 0.31
32 0.15
33 0.15
34 0.15
35 0.15
36 0.4
37 0.4
4 -0.71
5 -0.57
6 -0.62
7 -0.9
8 0.26
9 0.11

> <PUBCHEM_EFFECTIVE_ROTOR_COUNT>
5

> <PUBCHEM_PHARMACOPHORE_FEATURES>
11
1 1 acceptor
1 2 acceptor
1 4 acceptor
1 7 cation
1 7 donor
3 3 5 9 cation
3 5 6 21 cation
3 8 13 14 hydrophobe
5 3 4 9 10 11 rings
6 12 16 17 18 19 20 rings
6 5 6 9 10 15 21 rings

> <PUBCHEM_HEAVY_ATOM_COUNT>
24

> <PUBCHEM_ATOM_DEF_STEREO_COUNT>
0

> <PUBCHEM_ATOM_UDEF_STEREO_COUNT>
0

> <PUBCHEM_BOND_DEF_STEREO_COUNT>
0

> <PUBCHEM_BOND_UDEF_STEREO_COUNT>
0

> <PUBCHEM_ISOTOPIC_ATOM_COUNT>
0

> <PUBCHEM_COMPONENT_COUNT>
1

> <PUBCHEM_CACTVS_TAUTO_COUNT>
5

> <PUBCHEM_CONFORMER_ID>
0327E2DE00000002

> <PUBCHEM_MMFF94_ENERGY>
72.7193

> <PUBCHEM_FEATURE_SELFOVERLAP>
56.104

> <PUBCHEM_SHAPE_FINGERPRINT>
10319926 262 18341313549475353498
10366900 7 17845939511508497132
11545043 162 18272377460042235158
11582403 64 17555408952536063429
11595378 159 18042676372432853728
11725454 13 17629445706069010097
11796584 16 18268161868480581382
12236239 1 17385731325899817231
12342043 65 17773339982660648262
12403259 415 18060143141047425776
12549972 3 18059860523846986682
12553582 1 18117563040244295419
12788726 201 17896045497774301003
13140716 1 18120672472465741427
13583140 156 17988631987525533630
14178342 30 18334562543121371706
14294032 229 18188494559036154621
14468879 13 17416660570819999081
15042514 8 18119268370231840051
15131766 46 15266205033442890283
15842332 3 17385436635619784512
16752209 62 18334858346357031303
173720 79 17822279142850595645
20510252 161 18341059596422344993
20554085 129 18196074574342718561
21033648 144 16200140050099437344
21033648 29 17917987287240604368
21065201 7 18410578396383784918
212916 134 18265320738438519873
21304303 282 17904721628475986031
22182313 1 17846495967587378808
23175994 123 16916527877552371558
23557571 272 18343588455538188493
23559900 14 18270125608947490110
23598288 3 17023454236180900268
23598291 2 17312818264918901090
25147074 1 17240477009713115864
495365 180 17845358973595264334
5265222 85 18196957628773168630
57527295 17 17416127179058024261
59755656 520 17914639171660967257
602551 16 18410017667002321646
6049 1 17917438665255682936
7615 1 17385996304012645300
77492 1 17385724724582451894
9862522 239 17604984824232055373

> <PUBCHEM_SHAPE_MULTIPOLES>
457.27
9.85
2.82
2.51
4.79
0.43
-1.41
-2.69
0.06
-5.41
-0.64
5.35
-0.98
2.59

> <PUBCHEM_SHAPE_SELFOVERLAP>
986.523

> <PUBCHEM_SHAPE_VOLUME>
251.6

> <PUBCHEM_COORDINATE_TYPE>
2
5
10

$$$$
