44541014
  -OEChem-10052115143D

 55 59  0     0  0  0  0  0  0999 V2000
    0.4617   -2.1199    0.4787 O   0  0  0  0  0  0  0  0  0  0  0  0
   -1.5762   -1.2058   -2.2676 O   0  0  0  0  0  0  0  0  0  0  0  0
   -3.9731   -2.5630   -1.0140 O   0  0  0  0  0  0  0  0  0  0  0  0
   -2.9985    4.0645   -0.5246 O   0  0  0  0  0  0  0  0  0  0  0  0
   -5.4267    0.3762   -0.7256 O   0  0  0  0  0  0  0  0  0  0  0  0
    4.8376   -1.1640   -0.6899 N   0  0  0  0  0  0  0  0  0  0  0  0
    5.5180    0.6979    0.6789 N   0  0  0  0  0  0  0  0  0  0  0  0
   -3.6307    2.1366    0.5980 N   0  0  0  0  0  0  0  0  0  0  0  0
    3.2454    0.3083   -0.1558 C   0  0  0  0  0  0  0  0  0  0  0  0
    2.6746   -0.7152   -0.9577 C   0  0  0  0  0  0  0  0  0  0  0  0
    4.5943   -0.0012   -0.0074 C   0  0  0  0  0  0  0  0  0  0  0  0
    2.7771    1.4742    0.4712 C   0  0  0  0  0  0  0  0  0  0  0  0
    3.6776   -1.6072   -1.2709 C   0  0  0  0  0  0  0  0  0  0  0  0
    1.3926    1.8638    0.3648 C   0  0  0  0  0  0  0  0  0  0  0  0
    1.2790   -0.8638   -1.4110 C   0  0  0  0  0  0  0  0  0  0  0  0
    3.6922    2.2360    1.1957 C   0  0  0  0  0  0  0  0  0  0  0  0
    0.3057   -1.4955   -0.7530 C   0  0  0  0  0  0  0  0  0  0  0  0
    6.1163   -1.8317   -0.7892 C   0  0  0  0  0  0  0  0  0  0  0  0
    5.0118    1.8094    1.2621 C   0  0  0  0  0  0  0  0  0  0  0  0
   -1.7365   -2.3831   -0.1807 C   0  0  0  0  0  0  0  0  0  0  0  0
   -1.0881   -1.6240   -1.2425 C   0  0  0  0  0  0  0  0  0  0  0  0
    0.9788    2.6898   -0.6802 C   0  0  0  0  0  0  0  0  0  0  0  0
    0.4672    1.4136    1.3063 C   0  0  0  0  0  0  0  0  0  0  0  0
   -0.7731   -2.6391    0.7933 C   0  0  0  0  0  0  0  0  0  0  0  0
   -1.2858    2.6157    0.1581 C   0  0  0  0  0  0  0  0  0  0  0  0
   -0.3603    3.0658   -0.7836 C   0  0  0  0  0  0  0  0  0  0  0  0
   -0.8721    1.7896    1.2030 C   0  0  0  0  0  0  0  0  0  0  0  0
   -3.0409   -2.8144   -0.0643 C   0  0  0  0  0  0  0  0  0  0  0  0
   -1.0828   -3.3452    1.9358 C   0  0  0  0  0  0  0  0  0  0  0  0
   -3.3688   -3.5314    1.0889 C   0  0  0  0  0  0  0  0  0  0  0  0
   -2.3998   -3.7943    2.0788 C   0  0  0  0  0  0  0  0  0  0  0  0
   -2.6817    3.0080    0.0506 C   0  0  0  0  0  0  0  0  0  0  0  0
   -5.0555    2.3743    0.5504 C   0  0  0  0  0  0  0  0  0  0  0  0
   -5.6795    1.7750   -0.6966 C   0  0  0  0  0  0  0  0  0  0  0  0
    3.6609   -2.5170   -1.8571 H   0  0  0  0  0  0  0  0  0  0  0  0
    1.0582   -0.4058   -2.3725 H   0  0  0  0  0  0  0  0  0  0  0  0
    3.3926    3.1480    1.7037 H   0  0  0  0  0  0  0  0  0  0  0  0
    6.8263   -1.1471   -1.2601 H   0  0  0  0  0  0  0  0  0  0  0  0
    6.4454   -2.0962    0.2190 H   0  0  0  0  0  0  0  0  0  0  0  0
    6.0134   -2.7352   -1.3954 H   0  0  0  0  0  0  0  0  0  0  0  0
    5.7388    2.3911    1.8227 H   0  0  0  0  0  0  0  0  0  0  0  0
    1.6871    3.0478   -1.4238 H   0  0  0  0  0  0  0  0  0  0  0  0
    0.7743    0.7731    2.1299 H   0  0  0  0  0  0  0  0  0  0  0  0
   -0.6632    3.7060   -1.6082 H   0  0  0  0  0  0  0  0  0  0  0  0
   -1.5525    1.4403    1.9740 H   0  0  0  0  0  0  0  0  0  0  0  0
   -0.3395   -3.5480    2.6980 H   0  0  0  0  0  0  0  0  0  0  0  0
   -4.3834   -3.8953    1.2330 H   0  0  0  0  0  0  0  0  0  0  0  0
   -2.6828   -4.3545    2.9663 H   0  0  0  0  0  0  0  0  0  0  0  0
   -3.3379    1.2502    0.9951 H   0  0  0  0  0  0  0  0  0  0  0  0
   -5.4758    1.9057    1.4463 H   0  0  0  0  0  0  0  0  0  0  0  0
   -5.2479    3.4510    0.5931 H   0  0  0  0  0  0  0  0  0  0  0  0
   -3.5657   -2.0512   -1.7331 H   0  0  0  0  0  0  0  0  0  0  0  0
   -6.7618    1.9359   -0.6972 H   0  0  0  0  0  0  0  0  0  0  0  0
   -5.2527    2.2197   -1.6015 H   0  0  0  0  0  0  0  0  0  0  0  0
   -5.8382    0.0285   -1.5351 H   0  0  0  0  0  0  0  0  0  0  0  0
  1 17  1  0  0  0  0
  1 24  1  0  0  0  0
  2 21  2  0  0  0  0
  3 28  1  0  0  0  0
  3 52  1  0  0  0  0
  4 32  2  0  0  0  0
  5 34  1  0  0  0  0
  5 55  1  0  0  0  0
  6 11  1  0  0  0  0
  6 13  1  0  0  0  0
  6 18  1  0  0  0  0
  7 11  2  0  0  0  0
  7 19  1  0  0  0  0
  8 32  1  0  0  0  0
  8 33  1  0  0  0  0
  8 49  1  0  0  0  0
  9 10  1  0  0  0  0
  9 11  1  0  0  0  0
  9 12  2  0  0  0  0
 10 13  2  0  0  0  0
 10 15  1  0  0  0  0
 12 14  1  0  0  0  0
 12 16  1  0  0  0  0
 13 35  1  0  0  0  0
 14 22  2  0  0  0  0
 14 23  1  0  0  0  0
 15 17  2  0  0  0  0
 15 36  1  0  0  0  0
 16 19  2  0  0  0  0
 16 37  1  0  0  0  0
 17 21  1  0  0  0  0
 18 38  1  0  0  0  0
 18 39  1  0  0  0  0
 18 40  1  0  0  0  0
 19 41  1  0  0  0  0
 20 21  1  0  0  0  0
 20 24  1  0  0  0  0
 20 28  2  0  0  0  0
 22 26  1  0  0  0  0
 22 42  1  0  0  0  0
 23 27  2  0  0  0  0
 23 43  1  0  0  0  0
 24 29  2  0  0  0  0
 25 26  2  0  0  0  0
 25 27  1  0  0  0  0
 25 32  1  0  0  0  0
 26 44  1  0  0  0  0
 27 45  1  0  0  0  0
 28 30  1  0  0  0  0
 29 31  1  0  0  0  0
 29 46  1  0  0  0  0
 30 31  2  0  0  0  0
 30 47  1  0  0  0  0
 31 48  1  0  0  0  0
 33 34  1  0  0  0  0
 33 50  1  0  0  0  0
 33 51  1  0  0  0  0
 34 53  1  0  0  0  0
 34 54  1  0  0  0  0
M  END
> <PUBCHEM_COMPOUND_CID>
44541014

> <PUBCHEM_CONFORMER_RMSD>
1

> <PUBCHEM_CONFORMER_DIVERSEORDER>
1
4
9
7
6
8
2
11
5
10
3
12
13

> <PUBCHEM_MMFF94_PARTIAL_CHARGES>
45
1 -0.16
10 -0.05
11 0.11
13 -0.3
15 -0.1
16 -0.15
17 0.09
18 0.26
19 0.16
2 -0.57
20 0.09
21 0.47
22 -0.15
23 -0.15
24 0.08
25 0.09
26 -0.15
27 -0.15
28 0.08
29 -0.15
3 -0.53
30 -0.15
31 -0.15
32 0.54
33 0.3
34 0.28
35 0.15
36 0.15
37 0.15
4 -0.57
41 0.15
42 0.15
43 0.15
44 0.15
45 0.15
46 0.15
47 0.15
48 0.15
49 0.37
5 -0.68
52 0.45
55 0.4
6 0.05
7 -0.57
8 -0.73

> <PUBCHEM_EFFECTIVE_ROTOR_COUNT>
6.2

> <PUBCHEM_PHARMACOPHORE_FEATURES>
13
1 1 acceptor
1 2 acceptor
1 3 donor
1 4 acceptor
1 5 acceptor
1 5 donor
1 8 donor
3 6 7 11 cation
5 1 17 20 21 24 rings
5 6 9 10 11 13 rings
6 14 22 23 25 26 27 rings
6 20 24 28 29 30 31 rings
6 7 9 11 12 16 19 rings

> <PUBCHEM_HEAVY_ATOM_COUNT>
34

> <PUBCHEM_ATOM_DEF_STEREO_COUNT>
0

> <PUBCHEM_ATOM_UDEF_STEREO_COUNT>
0

> <PUBCHEM_BOND_DEF_STEREO_COUNT>
1

> <PUBCHEM_BOND_UDEF_STEREO_COUNT>
0

> <PUBCHEM_ISOTOPIC_ATOM_COUNT>
0

> <PUBCHEM_COMPONENT_COUNT>
1

> <PUBCHEM_CACTVS_TAUTO_COUNT>
10

> <PUBCHEM_CONFORMER_ID>
02A7A45600000001

> <PUBCHEM_MMFF94_ENERGY>
92.694

> <PUBCHEM_FEATURE_SELFOVERLAP>
66.193

> <PUBCHEM_SHAPE_FINGERPRINT>
10119406 146 17908721535830523358
10688039 33 18265617778160147650
108634 29 18342466893521785534
10864689 126 17908994196885067029
1100329 8 18409173203401705429
11828532 37 17465100840801103627
12156800 1 18122374451387142429
12293681 4 18119243115164386635
12422481 6 18128282123273794539
12633257 1 17615409598823069706
12788726 201 18191581055071917120
13140716 1 18343582911526336248
13402501 40 18272088288526587909
13540713 4 18202003227603326428
13947930 73 17533521143020180755
140371 6 17975694205973889560
14866123 147 18263641758629724466
15361156 5 18341332279611719644
15484559 13 17693090769123314365
15968369 153 18059287785415352876
17627616 140 18116986681687611403
20739085 24 17475519846854380632
20764821 26 18118991267652370009
21133410 62 18189317002497024677
21133410 90 16772953765667933899
21197605 99 18202280325211797461
22393880 68 17979918207293441877
23516275 137 17131287748933657757
24893992 56 18261105319313477623
3052486 1 18334013912583451977
4058900 60 17761788264612695604
463206 1 18412831270256259913
469060 322 17603579721269845493
508706 21 18410856563977000473

> <PUBCHEM_SHAPE_MULTIPOLES>
655.41
11.03
5.52
1.59
4.44
0.55
-0.13
-1.59
0.55
-6.42
-1.45
-0.18
0.96
2.37

> <PUBCHEM_SHAPE_SELFOVERLAP>
1468.933

> <PUBCHEM_SHAPE_VOLUME>
348.6

> <PUBCHEM_COORDINATE_TYPE>
2
5
10

$$$$
