5466794
  -OEChem-10062122013D

 48 51  0     1  0  0  0  0  0999 V2000
    2.9868   -0.9209    2.5006 Cl  0  0  0  0  0  0  0  0  0  0  0  0
   -1.8860   -0.9557    2.2418 O   0  0  0  0  0  0  0  0  0  0  0  0
    0.7557    0.0740   -0.1749 O   0  0  0  0  0  0  0  0  0  0  0  0
   -3.7655    1.5577   -0.0652 O   0  0  0  0  0  0  0  0  0  0  0  0
   -0.3083    4.8010   -0.0321 O   0  0  0  0  0  0  0  0  0  0  0  0
    2.1550    3.8994   -0.0920 O   0  0  0  0  0  0  0  0  0  0  0  0
   -4.0718   -2.6583   -0.2252 N   0  0  1  0  0  0  0  0  0  0  0  0
   -1.9459   -0.6358   -0.1513 C   0  0  1  0  0  0  0  0  0  0  0  0
   -2.7446   -1.0343    1.1042 C   0  0  1  0  0  0  0  0  0  0  0  0
   -2.7668   -0.9326   -1.4164 C   0  0  0  0  0  0  0  0  0  0  0  0
   -3.2733   -2.4701    0.9908 C   0  0  0  0  0  0  0  0  0  0  0  0
   -3.2754   -2.3749   -1.4260 C   0  0  0  0  0  0  0  0  0  0  0  0
   -1.4861    0.8132   -0.1201 C   0  0  0  0  0  0  0  0  0  0  0  0
   -0.1262    1.1240   -0.1339 C   0  0  0  0  0  0  0  0  0  0  0  0
   -4.6099   -4.0175   -0.2784 C   0  0  0  0  0  0  0  0  0  0  0  0
   -2.4314    1.8384   -0.0782 C   0  0  0  0  0  0  0  0  0  0  0  0
    0.2843    2.4558   -0.1052 C   0  0  0  0  0  0  0  0  0  0  0  0
   -2.0184    3.1712   -0.0498 C   0  0  0  0  0  0  0  0  0  0  0  0
   -0.6589    3.4851   -0.0630 C   0  0  0  0  0  0  0  0  0  0  0  0
    1.7244    2.7548   -0.1186 C   0  0  0  0  0  0  0  0  0  0  0  0
    2.1139    0.3526   -0.1963 C   0  0  0  0  0  0  0  0  0  0  0  0
    2.6320    1.5907   -0.1655 C   0  0  0  0  0  0  0  0  0  0  0  0
    2.9722   -0.8484   -0.2343 C   0  0  0  0  0  0  0  0  0  0  0  0
    3.4163   -1.4923    0.9261 C   0  0  0  0  0  0  0  0  0  0  0  0
    3.3476   -1.3504   -1.4848 C   0  0  0  0  0  0  0  0  0  0  0  0
    4.2262   -2.6245    0.8362 C   0  0  0  0  0  0  0  0  0  0  0  0
    4.1575   -2.4825   -1.5745 C   0  0  0  0  0  0  0  0  0  0  0  0
    4.5968   -3.1196   -0.4141 C   0  0  0  0  0  0  0  0  0  0  0  0
   -1.0684   -1.2940   -0.1882 H   0  0  0  0  0  0  0  0  0  0  0  0
   -3.5903   -0.3689    1.2973 H   0  0  0  0  0  0  0  0  0  0  0  0
   -2.1457   -0.7656   -2.3059 H   0  0  0  0  0  0  0  0  0  0  0  0
   -3.6317   -0.2706   -1.5233 H   0  0  0  0  0  0  0  0  0  0  0  0
   -2.4361   -3.1814    1.0281 H   0  0  0  0  0  0  0  0  0  0  0  0
   -3.8823   -2.6795    1.8801 H   0  0  0  0  0  0  0  0  0  0  0  0
   -3.8920   -2.5131   -2.3228 H   0  0  0  0  0  0  0  0  0  0  0  0
   -2.4262   -3.0664   -1.5068 H   0  0  0  0  0  0  0  0  0  0  0  0
   -5.2461   -4.1451   -1.1613 H   0  0  0  0  0  0  0  0  0  0  0  0
   -5.2424   -4.2152    0.5942 H   0  0  0  0  0  0  0  0  0  0  0  0
   -3.8190   -4.7757   -0.3104 H   0  0  0  0  0  0  0  0  0  0  0  0
   -1.1380   -1.5601    2.0979 H   0  0  0  0  0  0  0  0  0  0  0  0
   -2.7534    3.9722   -0.0169 H   0  0  0  0  0  0  0  0  0  0  0  0
    3.6997    1.7794   -0.1749 H   0  0  0  0  0  0  0  0  0  0  0  0
   -4.2658    2.3910   -0.0357 H   0  0  0  0  0  0  0  0  0  0  0  0
    0.6563    4.8965   -0.0468 H   0  0  0  0  0  0  0  0  0  0  0  0
    3.0142   -0.8684   -2.4012 H   0  0  0  0  0  0  0  0  0  0  0  0
    4.5773   -3.1333    1.7305 H   0  0  0  0  0  0  0  0  0  0  0  0
    4.4459   -2.8683   -2.5480 H   0  0  0  0  0  0  0  0  0  0  0  0
    5.2272   -4.0011   -0.4842 H   0  0  0  0  0  0  0  0  0  0  0  0
  1 24  1  0  0  0  0
  2  9  1  0  0  0  0
  2 40  1  0  0  0  0
  3 14  1  0  0  0  0
  3 21  1  0  0  0  0
  4 16  1  0  0  0  0
  4 43  1  0  0  0  0
  5 19  1  0  0  0  0
  5 44  1  0  0  0  0
  6 20  2  0  0  0  0
  7 11  1  0  0  0  0
  7 12  1  0  0  0  0
  7 15  1  0  0  0  0
  8  9  1  0  0  0  0
  8 10  1  0  0  0  0
  8 13  1  0  0  0  0
  8 29  1  0  0  0  0
  9 11  1  0  0  0  0
  9 30  1  0  0  0  0
 10 12  1  0  0  0  0
 10 31  1  0  0  0  0
 10 32  1  0  0  0  0
 11 33  1  0  0  0  0
 11 34  1  0  0  0  0
 12 35  1  0  0  0  0
 12 36  1  0  0  0  0
 13 14  1  0  0  0  0
 13 16  2  0  0  0  0
 14 17  2  0  0  0  0
 15 37  1  0  0  0  0
 15 38  1  0  0  0  0
 15 39  1  0  0  0  0
 16 18  1  0  0  0  0
 17 19  1  0  0  0  0
 17 20  1  0  0  0  0
 18 19  2  0  0  0  0
 18 41  1  0  0  0  0
 20 22  1  0  0  0  0
 21 22  2  0  0  0  0
 21 23  1  0  0  0  0
 22 42  1  0  0  0  0
 23 24  1  0  0  0  0
 23 25  2  0  0  0  0
 24 26  2  0  0  0  0
 25 27  1  0  0  0  0
 25 45  1  0  0  0  0
 26 28  1  0  0  0  0
 26 46  1  0  0  0  0
 27 28  2  0  0  0  0
 27 47  1  0  0  0  0
 28 48  1  0  0  0  0
M  END
> <PUBCHEM_COMPOUND_CID>
5466794

> <PUBCHEM_CONFORMER_RMSD>
0.8

> <PUBCHEM_CONFORMER_DIVERSEORDER>
4
18
10
19
6
1
13
11
15
9
7
17
16
12
14
2
20
8
21
3
22
5

> <PUBCHEM_MMFF94_PARTIAL_CHARGES>
36
1 -0.18
11 0.27
12 0.27
13 -0.14
14 0.08
15 0.27
16 0.08
17 0.09
18 -0.15
19 0.08
2 -0.68
20 0.47
21 0.05
22 -0.14
23 0.03
24 0.18
25 -0.15
26 -0.15
27 -0.15
28 -0.15
3 -0.16
4 -0.53
40 0.4
41 0.15
42 0.15
43 0.45
44 0.45
45 0.15
46 0.15
47 0.15
48 0.15
5 -0.53
6 -0.57
7 -0.81
8 0.14
9 0.28

> <PUBCHEM_EFFECTIVE_ROTOR_COUNT>
3.2

> <PUBCHEM_PHARMACOPHORE_FEATURES>
11
1 2 acceptor
1 2 donor
1 3 acceptor
1 4 donor
1 5 donor
1 6 acceptor
1 7 cation
6 13 14 16 17 18 19 rings
6 23 24 25 26 27 28 rings
6 3 14 17 20 21 22 rings
6 7 8 9 10 11 12 rings

> <PUBCHEM_HEAVY_ATOM_COUNT>
28

> <PUBCHEM_ATOM_DEF_STEREO_COUNT>
0

> <PUBCHEM_ATOM_UDEF_STEREO_COUNT>
2

> <PUBCHEM_BOND_DEF_STEREO_COUNT>
0

> <PUBCHEM_BOND_UDEF_STEREO_COUNT>
0

> <PUBCHEM_ISOTOPIC_ATOM_COUNT>
0

> <PUBCHEM_COMPONENT_COUNT>
1

> <PUBCHEM_CACTVS_TAUTO_COUNT>
12

> <PUBCHEM_CONFORMER_ID>
00536AAA00000004

> <PUBCHEM_MMFF94_ENERGY>
82.5068

> <PUBCHEM_FEATURE_SELFOVERLAP>
55.85

> <PUBCHEM_SHAPE_FINGERPRINT>
1100329 8 18337387137460136905
11014199 57 18411136926720874118
11421498 54 17556882512844471744
11578080 2 17488451044326779049
12107183 9 18270419251893883883
12363563 72 18409164420014561638
12422481 6 18129964316494184675
12553582 1 18263923241784263266
12788726 201 18046356236224693592
13140716 1 18412261718404978081
13690498 29 18265074465114118086
13785724 45 18269855236393401719
13911987 19 17467647325987320316
14114206 34 17749114344138971602
14251757 5 18049455742486983878
14659021 117 18194103141335135512
14844126 61 18119810210009201114
14863182 85 17832428974482377180
15042514 8 18339364042149702469
15484559 13 17331405775111066221
16728300 4 17466741204432405792
16752209 62 17829886534363672432
17492 89 18339921618698805103
19930381 70 18192991754086330499
20028762 73 17983857783922061405
20775438 99 17836037439091602693
20775530 9 18260837015597937998
21133410 230 16394990801974365467
21133410 58 18124294246562764047
21133410 62 15528799467166160598
21285901 2 17390486830324024311
21421861 104 18265614471204030977
21781051 124 18042980774762810849
22033318 11 17909872930989848043
23184049 29 18409164398634339356
23559900 14 18412537691686896452
23728640 28 18049724022970811179
25222932 49 17621602039573395191
3178227 256 18048895000522345065
3383291 50 18123187905645517507
4017518 198 16316647235473187858
508706 21 17984426239337839166
5265222 85 16898225136793807222
5309563 4 18267308826964870751
563151 74 16557309757883071954
602551 16 17907571433713583274
613672 6 18267280149458075630
6673363 416 18340778066739694454
70251023 43 18337116755909341259
9709674 26 18411415102983463949

> <PUBCHEM_SHAPE_MULTIPOLES>
543.77
8.76
5.79
1.48
2.64
3.34
0.61
-11.12
-0.64
-2.65
-0.64
0.75
-1.17
0.08

> <PUBCHEM_SHAPE_SELFOVERLAP>
1187.622

> <PUBCHEM_SHAPE_VOLUME>
295.2

> <PUBCHEM_COORDINATE_TYPE>
2
5
10

$$$$
