44355564
  -OEChem-10062121583D

 64 70  0     1  0  0  0  0  0999 V2000
   -4.6873    0.8396   -0.7814 O   0  0  0  0  0  0  0  0  0  0  0  0
   -3.7005   -1.2940    1.9167 O   0  0  0  0  0  0  0  0  0  0  0  0
   -6.1875   -1.2716    0.7498 O   0  0  0  0  0  0  0  0  0  0  0  0
    2.7758    2.7476   -0.6032 O   0  0  0  0  0  0  0  0  0  0  0  0
    3.7216   -1.7951   -0.5153 O   0  0  0  0  0  0  0  0  0  0  0  0
   -3.6353    5.4449   -0.2821 O   0  0  0  0  0  0  0  0  0  0  0  0
   -1.0775   -6.8150   -0.0419 O   0  0  0  0  0  0  0  0  0  0  0  0
    5.8182    2.4617    2.5037 O   0  0  0  0  0  0  0  0  0  0  0  0
    7.2360   -0.7017    0.0884 O   0  0  0  0  0  0  0  0  0  0  0  0
   -2.3254    0.7415   -0.2099 N   0  0  0  0  0  0  0  0  0  0  0  0
   -1.7575   -1.9813   -0.1571 N   0  0  0  0  0  0  0  0  0  0  0  0
    3.6272    0.5555   -0.5863 N   0  0  0  0  0  0  0  0  0  0  0  0
    4.9703    0.8249   -0.6809 N   0  0  0  0  0  0  0  0  0  0  0  0
   -3.6734    0.0689   -0.1019 C   0  0  1  0  0  0  0  0  0  0  0  0
   -1.0489    0.3005   -0.2777 C   0  0  0  0  0  0  0  0  0  0  0  0
    0.0740    1.1884   -0.3793 C   0  0  0  0  0  0  0  0  0  0  0  0
   -4.1506   -0.0851    1.3395 C   0  0  1  0  0  0  0  0  0  0  0  0
   -0.7632   -1.0696   -0.2512 C   0  0  0  0  0  0  0  0  0  0  0  0
   -2.1312    2.1134   -0.2678 C   0  0  0  0  0  0  0  0  0  0  0  0
   -0.7319    2.4182   -0.3682 C   0  0  0  0  0  0  0  0  0  0  0  0
   -5.6570   -0.0257    1.1935 C   0  0  1  0  0  0  0  0  0  0  0  0
    1.4108    0.8064   -0.4527 C   0  0  0  0  0  0  0  0  0  0  0  0
    0.6217   -1.4379   -0.3283 C   0  0  0  0  0  0  0  0  0  0  0  0
    1.6950   -0.5565   -0.4262 C   0  0  0  0  0  0  0  0  0  0  0  0
   -5.8133    1.0119    0.1009 C   0  0  0  0  0  0  0  0  0  0  0  0
    0.3745   -2.8859   -0.2650 C   0  0  0  0  0  0  0  0  0  0  0  0
   -1.0307   -3.1624   -0.1654 C   0  0  0  0  0  0  0  0  0  0  0  0
    2.6653    1.5386   -0.5568 C   0  0  0  0  0  0  0  0  0  0  0  0
    3.1380   -0.7295   -0.5129 C   0  0  0  0  0  0  0  0  0  0  0  0
   -3.1068    3.1218   -0.2384 C   0  0  0  0  0  0  0  0  0  0  0  0
   -0.3727    3.7861   -0.4369 C   0  0  0  0  0  0  0  0  0  0  0  0
   -2.6990    4.4544   -0.3090 C   0  0  0  0  0  0  0  0  0  0  0  0
    1.2512   -3.9976   -0.2853 C   0  0  0  0  0  0  0  0  0  0  0  0
   -1.3535    4.7835   -0.4070 C   0  0  0  0  0  0  0  0  0  0  0  0
   -1.5220   -4.4747   -0.0907 C   0  0  0  0  0  0  0  0  0  0  0  0
    5.5557    0.9412    0.6480 C   0  0  0  0  0  0  0  0  0  0  0  0
    0.7507   -5.3020   -0.2103 C   0  0  0  0  0  0  0  0  0  0  0  0
   -0.6149   -5.5348   -0.1146 C   0  0  0  0  0  0  0  0  0  0  0  0
    5.3018    2.3506    1.1830 C   0  0  0  0  0  0  0  0  0  0  0  0
    7.0522    0.6211    0.5803 C   0  0  0  0  0  0  0  0  0  0  0  0
   -3.6650   -0.8152   -0.7302 H   0  0  0  0  0  0  0  0  0  0  0  0
   -3.8132    0.7536    1.9615 H   0  0  0  0  0  0  0  0  0  0  0  0
   -6.1665    0.2413    2.1236 H   0  0  0  0  0  0  0  0  0  0  0  0
   -6.7279    0.8821   -0.4854 H   0  0  0  0  0  0  0  0  0  0  0  0
   -5.8105    2.0208    0.5202 H   0  0  0  0  0  0  0  0  0  0  0  0
   -2.7271   -1.9391    0.0775 H   0  0  0  0  0  0  0  0  0  0  0  0
   -4.1587    2.9309   -0.1469 H   0  0  0  0  0  0  0  0  0  0  0  0
    0.6683    4.0828   -0.5139 H   0  0  0  0  0  0  0  0  0  0  0  0
   -2.7673   -1.1701    2.1603 H   0  0  0  0  0  0  0  0  0  0  0  0
    2.3246   -3.8561   -0.3592 H   0  0  0  0  0  0  0  0  0  0  0  0
   -1.0496    5.8262   -0.4614 H   0  0  0  0  0  0  0  0  0  0  0  0
   -7.1430   -1.1500    0.6166 H   0  0  0  0  0  0  0  0  0  0  0  0
   -2.5908   -4.6547   -0.0155 H   0  0  0  0  0  0  0  0  0  0  0  0
    5.3998    0.0489   -1.1848 H   0  0  0  0  0  0  0  0  0  0  0  0
    5.1175    0.2018    1.3338 H   0  0  0  0  0  0  0  0  0  0  0  0
    1.4464   -6.1374   -0.2278 H   0  0  0  0  0  0  0  0  0  0  0  0
    4.2388    2.5750    1.2689 H   0  0  0  0  0  0  0  0  0  0  0  0
    5.7790    3.1126    0.5570 H   0  0  0  0  0  0  0  0  0  0  0  0
    7.5785    1.3147   -0.0853 H   0  0  0  0  0  0  0  0  0  0  0  0
    7.5102    0.6780    1.5731 H   0  0  0  0  0  0  0  0  0  0  0  0
   -4.5196    5.0461   -0.2125 H   0  0  0  0  0  0  0  0  0  0  0  0
   -2.0480   -6.7973    0.0203 H   0  0  0  0  0  0  0  0  0  0  0  0
    5.6473    3.3712    2.8024 H   0  0  0  0  0  0  0  0  0  0  0  0
    8.1942   -0.8651    0.0619 H   0  0  0  0  0  0  0  0  0  0  0  0
  1 14  1  0  0  0  0
  1 25  1  0  0  0  0
  2 17  1  0  0  0  0
  2 49  1  0  0  0  0
  3 21  1  0  0  0  0
  3 52  1  0  0  0  0
  4 28  2  0  0  0  0
  5 29  2  0  0  0  0
  6 32  1  0  0  0  0
  6 61  1  0  0  0  0
  7 38  1  0  0  0  0
  7 62  1  0  0  0  0
  8 39  1  0  0  0  0
  8 63  1  0  0  0  0
  9 40  1  0  0  0  0
  9 64  1  0  0  0  0
 10 14  1  0  0  0  0
 10 15  1  0  0  0  0
 10 19  1  0  0  0  0
 11 18  1  0  0  0  0
 11 27  1  0  0  0  0
 11 46  1  0  0  0  0
 12 13  1  0  0  0  0
 12 28  1  0  0  0  0
 12 29  1  0  0  0  0
 13 36  1  0  0  0  0
 13 54  1  0  0  0  0
 14 17  1  0  0  0  0
 14 41  1  0  0  0  0
 15 16  1  0  0  0  0
 15 18  2  0  0  0  0
 16 20  1  0  0  0  0
 16 22  2  0  0  0  0
 17 21  1  0  0  0  0
 17 42  1  0  0  0  0
 18 23  1  0  0  0  0
 19 20  2  0  0  0  0
 19 30  1  0  0  0  0
 20 31  1  0  0  0  0
 21 25  1  0  0  0  0
 21 43  1  0  0  0  0
 22 24  1  0  0  0  0
 22 28  1  0  0  0  0
 23 24  2  0  0  0  0
 23 26  1  0  0  0  0
 24 29  1  0  0  0  0
 25 44  1  0  0  0  0
 25 45  1  0  0  0  0
 26 27  2  0  0  0  0
 26 33  1  0  0  0  0
 27 35  1  0  0  0  0
 30 32  2  0  0  0  0
 30 47  1  0  0  0  0
 31 34  2  0  0  0  0
 31 48  1  0  0  0  0
 32 34  1  0  0  0  0
 33 37  2  0  0  0  0
 33 50  1  0  0  0  0
 34 51  1  0  0  0  0
 35 38  2  0  0  0  0
 35 53  1  0  0  0  0
 36 39  1  0  0  0  0
 36 40  1  0  0  0  0
 36 55  1  0  0  0  0
 37 38  1  0  0  0  0
 37 56  1  0  0  0  0
 39 57  1  0  0  0  0
 39 58  1  0  0  0  0
 40 59  1  0  0  0  0
 40 60  1  0  0  0  0
M  END
> <PUBCHEM_COMPOUND_CID>
44355564

> <PUBCHEM_CONFORMER_RMSD>
1

> <PUBCHEM_CONFORMER_DIVERSEORDER>
1
4
5
3
2

> <PUBCHEM_MMFF94_PARTIAL_CHARGES>
52
1 -0.56
10 -0.04
11 -0.05
12 -0.11
13 -0.64
14 0.54
15 -0.05
16 -0.01
17 0.28
18 -0.05
19 -0.15
2 -0.68
21 0.28
22 0.09
23 -0.01
24 0.09
25 0.28
27 -0.15
28 0.54
29 0.54
3 -0.68
30 -0.15
31 -0.15
32 0.08
33 -0.15
34 -0.15
35 -0.15
36 0.27
37 -0.15
38 0.08
39 0.28
4 -0.57
40 0.28
46 0.27
47 0.15
48 0.15
49 0.4
5 -0.57
50 0.15
51 0.15
52 0.4
53 0.15
54 0.36
56 0.15
6 -0.53
61 0.45
62 0.45
63 0.4
64 0.4
7 -0.53
8 -0.68
9 -0.68

> <PUBCHEM_EFFECTIVE_ROTOR_COUNT>
6.2

> <PUBCHEM_PHARMACOPHORE_FEATURES>
24
1 1 acceptor
1 10 cation
1 11 cation
1 11 donor
1 13 donor
1 2 acceptor
1 2 donor
1 3 acceptor
1 3 donor
1 4 acceptor
1 5 acceptor
1 6 donor
1 7 donor
1 8 acceptor
1 8 donor
1 9 acceptor
1 9 donor
5 1 14 17 21 25 rings
5 10 15 16 19 20 rings
5 11 18 23 26 27 rings
5 12 22 24 28 29 rings
6 15 16 18 22 23 24 rings
6 19 20 30 31 32 34 rings
6 26 27 33 35 37 38 rings

> <PUBCHEM_HEAVY_ATOM_COUNT>
40

> <PUBCHEM_ATOM_DEF_STEREO_COUNT>
3

> <PUBCHEM_ATOM_UDEF_STEREO_COUNT>
0

> <PUBCHEM_BOND_DEF_STEREO_COUNT>
0

> <PUBCHEM_BOND_UDEF_STEREO_COUNT>
0

> <PUBCHEM_ISOTOPIC_ATOM_COUNT>
0

> <PUBCHEM_COMPONENT_COUNT>
1

> <PUBCHEM_CACTVS_TAUTO_COUNT>
209

> <PUBCHEM_CONFORMER_ID>
02A4CFEC00000001

> <PUBCHEM_MMFF94_ENERGY>
153.965

> <PUBCHEM_FEATURE_SELFOVERLAP>
122.295

> <PUBCHEM_SHAPE_FINGERPRINT>
10050765 1 17906453230335621461
10074138 170 18124292047137360202
10190108 129 17906492907201122169
10290309 65 18339080384886474414
10411042 1 17761773267035174118
10930396 42 18124851668512583832
1100329 8 18193844970693003325
11115154 58 16911693531527402079
11135926 11 18337105671410977981
11136131 41 18189330165280388115
12202916 173 18114187475713273755
13140716 1 18122061168125301444
138480 1 17185594616388220406
13911987 19 18334577971192493213
140371 6 18115610166297086461
14068700 686 18337955575901669141
14790565 3 18410301272077199964
14866123 147 18267021833040028758
15200665 1 18337112379706633306
15230672 131 18265051333470352726
15320467 1 18410017632563553087
15400415 2 18266455417865787708
15439362 3 17544189381431633516
15815584 197 18195555686791122359
15927050 60 18124872365542783678
15950262 2 15768679536612416571
16728300 4 17677873670366535538
19311894 1 18193833966944989030
19591789 44 18410301298073558183
20028762 73 18200037369137305527
20775438 99 17047074255055749783
21033648 29 18271228449281162672
21133410 127 17609501523832355036
21133410 32 14905892848813548692
21703447 108 18122063105297976627
22223350 30 17983574396972260952
22311459 1 18410295839623961644
23559900 14 17617654359021273823
255183 313 18199199540876019915
283562 15 18342175523389233105
3178227 256 18264787617744879371
3383291 50 18410571790950859170
3882209 13 17334467889135187606
3886686 26 17982161533031157441
4403749 210 18335691720616483172
469060 322 18338254682073104017
5104073 3 18266740177901285744
5171179 24 17906744604763887731
5265222 85 18411427215909310988
6004065 56 18338796836342691637
9896288 288 18339366249262356464
9961470 85 17910666889268702625
9981440 41 18336264531181099129

> <PUBCHEM_SHAPE_MULTIPOLES>
750.43
12.5
8.27
1.05
12.29
8.69
-0.58
-8.2
-5.15
-4.29
0.97
0.37
-0.4
2.07

> <PUBCHEM_SHAPE_SELFOVERLAP>
1708.534

> <PUBCHEM_SHAPE_VOLUME>
390.3

> <PUBCHEM_COORDINATE_TYPE>
2
5
10

$$$$
