49830298
  -OEChem-10052115183D

 34 36  0     0  0  0  0  0  0999 V2000
   -2.2388    4.2496    0.8187 Cl  0  0  0  0  0  0  0  0  0  0  0  0
    3.2125    0.7088   -1.5442 N   0  0  0  0  0  0  0  0  0  0  0  0
   -3.3938   -0.5259    0.0660 N   0  0  0  0  0  0  0  0  0  0  0  0
    4.4399   -0.9188   -0.2604 N   0  0  0  0  0  0  0  0  0  0  0  0
   -2.7424    1.7407    0.4049 N   0  0  0  0  0  0  0  0  0  0  0  0
   -4.1430   -4.0889   -0.5561 N   0  0  0  0  0  0  0  0  0  0  0  0
    1.2599    0.6941   -0.4776 C   0  0  0  0  0  0  0  0  0  0  0  0
    2.1242   -0.2322    0.1638 C   0  0  0  0  0  0  0  0  0  0  0  0
   -0.0975    1.0487   -0.1774 C   0  0  0  0  0  0  0  0  0  0  0  0
    3.3331   -0.1990   -0.5251 C   0  0  0  0  0  0  0  0  0  0  0  0
    1.9567    1.2580   -1.5244 C   0  0  0  0  0  0  0  0  0  0  0  0
   -1.0942    0.0794   -0.2019 C   0  0  0  0  0  0  0  0  0  0  0  0
   -2.3892    0.4732    0.0941 C   0  0  0  0  0  0  0  0  0  0  0  0
    2.0284   -1.1061    1.2591 C   0  0  0  0  0  0  0  0  0  0  0  0
   -0.4218    2.3636    0.1380 C   0  0  0  0  0  0  0  0  0  0  0  0
   -3.1155   -1.8889   -0.2500 C   0  0  0  0  0  0  0  0  0  0  0  0
   -4.4083   -2.6939   -0.2272 C   0  0  0  0  0  0  0  0  0  0  0  0
   -1.7469    2.6553    0.4189 C   0  0  0  0  0  0  0  0  0  0  0  0
    3.1460   -1.8754    1.5775 C   0  0  0  0  0  0  0  0  0  0  0  0
    4.2908   -1.7424    0.8032 C   0  0  0  0  0  0  0  0  0  0  0  0
    1.6777    1.9986   -2.2620 H   0  0  0  0  0  0  0  0  0  0  0  0
   -0.8256   -0.9411   -0.4526 H   0  0  0  0  0  0  0  0  0  0  0  0
    3.9388    0.9376   -2.2085 H   0  0  0  0  0  0  0  0  0  0  0  0
    1.1190   -1.1866    1.8458 H   0  0  0  0  0  0  0  0  0  0  0  0
    0.3356    3.1417    0.1695 H   0  0  0  0  0  0  0  0  0  0  0  0
   -2.4161   -2.3190    0.4781 H   0  0  0  0  0  0  0  0  0  0  0  0
   -2.6713   -1.9691   -1.2505 H   0  0  0  0  0  0  0  0  0  0  0  0
   -4.3358   -0.2237    0.2865 H   0  0  0  0  0  0  0  0  0  0  0  0
   -5.1282   -2.2814   -0.9437 H   0  0  0  0  0  0  0  0  0  0  0  0
   -4.8709   -2.6407    0.7650 H   0  0  0  0  0  0  0  0  0  0  0  0
    3.1207   -2.5647    2.4147 H   0  0  0  0  0  0  0  0  0  0  0  0
    5.1715   -2.3347    1.0374 H   0  0  0  0  0  0  0  0  0  0  0  0
   -5.0227   -4.6027   -0.5846 H   0  0  0  0  0  0  0  0  0  0  0  0
   -3.7452   -4.1519   -1.4924 H   0  0  0  0  0  0  0  0  0  0  0  0
  1 18  1  0  0  0  0
  2 10  1  0  0  0  0
  2 11  1  0  0  0  0
  2 23  1  0  0  0  0
  3 13  1  0  0  0  0
  3 16  1  0  0  0  0
  3 28  1  0  0  0  0
  4 10  1  0  0  0  0
  4 20  2  0  0  0  0
  5 13  2  0  0  0  0
  5 18  1  0  0  0  0
  6 17  1  0  0  0  0
  6 33  1  0  0  0  0
  6 34  1  0  0  0  0
  7  8  1  0  0  0  0
  7  9  1  0  0  0  0
  7 11  2  0  0  0  0
  8 10  2  0  0  0  0
  8 14  1  0  0  0  0
  9 12  2  0  0  0  0
  9 15  1  0  0  0  0
 11 21  1  0  0  0  0
 12 13  1  0  0  0  0
 12 22  1  0  0  0  0
 14 19  2  0  0  0  0
 14 24  1  0  0  0  0
 15 18  2  0  0  0  0
 15 25  1  0  0  0  0
 16 17  1  0  0  0  0
 16 26  1  0  0  0  0
 16 27  1  0  0  0  0
 17 29  1  0  0  0  0
 17 30  1  0  0  0  0
 19 20  1  0  0  0  0
 19 31  1  0  0  0  0
 20 32  1  0  0  0  0
M  END
> <PUBCHEM_COMPOUND_CID>
49830298

> <PUBCHEM_CONFORMER_RMSD>
0.6

> <PUBCHEM_CONFORMER_DIVERSEORDER>
3
6
21
4
13
22
34
44
61
20
42
54
9
33
31
57
45
25
14
47
30
55
28
62
41
32
53
50
52
26
24
36
1
12
37
29
8
10
15
56
5
18
27
39
59
46
51
40
38
2
7
35
23
19
17
11
43
16
49
60
58
48

> <PUBCHEM_MMFF94_PARTIAL_CHARGES>
29
1 -0.18
10 0.11
11 -0.3
12 -0.15
13 0.41
14 -0.15
15 -0.15
16 0.37
17 0.27
18 0.49
19 -0.15
2 0.03
20 0.16
21 0.15
22 0.15
23 0.27
24 0.15
25 0.15
28 0.4
3 -0.87
31 0.15
32 0.15
33 0.36
34 0.36
4 -0.57
5 -0.62
6 -0.99
7 -0.05
9 0.05

> <PUBCHEM_EFFECTIVE_ROTOR_COUNT>
4

> <PUBCHEM_PHARMACOPHORE_FEATURES>
10
1 2 cation
1 2 donor
1 3 donor
1 4 acceptor
1 6 cation
1 6 donor
3 3 5 13 cation
5 2 7 8 10 11 rings
6 4 8 10 14 19 20 rings
6 5 9 12 13 15 18 rings

> <PUBCHEM_HEAVY_ATOM_COUNT>
20

> <PUBCHEM_ATOM_DEF_STEREO_COUNT>
0

> <PUBCHEM_ATOM_UDEF_STEREO_COUNT>
0

> <PUBCHEM_BOND_DEF_STEREO_COUNT>
0

> <PUBCHEM_BOND_UDEF_STEREO_COUNT>
0

> <PUBCHEM_ISOTOPIC_ATOM_COUNT>
0

> <PUBCHEM_COMPONENT_COUNT>
1

> <PUBCHEM_CACTVS_TAUTO_COUNT>
13

> <PUBCHEM_CONFORMER_ID>
02F8599A00000003

> <PUBCHEM_MMFF94_ENERGY>
46.179

> <PUBCHEM_FEATURE_SELFOVERLAP>
50.859

> <PUBCHEM_SHAPE_FINGERPRINT>
10616163 171 18338800009385007250
114674 6 17398952068993797915
11578080 2 18042943459549425628
11806522 49 18260546736644775398
12500047 106 18053376600593417536
12549972 3 16413243914465036702
12553582 1 18340210807826792483
12788726 201 18337967726738338921
12824470 246 18260823813021256063
13140716 1 18272089426777492953
13583140 156 17344887660663607058
13631057 29 18410294748406557294
13955234 65 17405148916923140619
14178342 30 18266169527034293226
14576447 43 18187646950849161246
14787075 74 18120940770071701428
15042514 8 18340775862535416673
15099037 8 18333450932470268333
15342816 4 18268158741047472935
15375462 189 18262530293991178571
15842332 3 18115888337863678572
16752209 62 18268703922948251277
19141452 34 17903917756353008922
19433438 48 17897159114153486336
20291156 8 18337388348350738031
20602899 9 17829584207558253685
212916 134 17622994708151082633
21452121 199 18267577090906924473
21634736 98 18187933910446224806
23503958 8 18340198584049155594
23557571 272 17916867894045730064
23559900 14 17771068181885164436
23598288 3 18262819366812898249
23598291 2 18115039519339888204
23728640 28 18194683670674258161
3004659 81 18114453548225123079
463206 1 18191023615398733579
5385378 56 16900468140145776833
58807428 26 17621325632800063417
603831 33 18261685843101579188
6992083 37 17970917643673398252
7097593 13 17973442101185533682
7615 1 18187933833021022508
77492 1 18115600227304913572
7970288 3 18269555103620211191

> <PUBCHEM_SHAPE_MULTIPOLES>
388.56
8.47
4.32
1.17
1.6
0.01
0.02
7.38
-0.17
-7.57
-0.63
1.13
-0.05
-2.5

> <PUBCHEM_SHAPE_SELFOVERLAP>
841.593

> <PUBCHEM_SHAPE_VOLUME>
214.4

> <PUBCHEM_COORDINATE_TYPE>
2
5
10

$$$$
