46872622
  -OEChem-10052115193D

 41 43  0     0  0  0  0  0  0999 V2000
    1.5005    3.2371   -0.9645 Cl  0  0  0  0  0  0  0  0  0  0  0  0
    7.2577   -1.9717   -0.9683 O   0  0  0  0  0  0  0  0  0  0  0  0
    6.4839   -1.7473    1.1484 O   0  0  0  0  0  0  0  0  0  0  0  0
   -2.6893    0.5008   -0.0768 O   0  0  0  0  0  0  0  0  0  0  0  0
    3.6612    0.6929   -0.3685 N   0  0  0  0  0  0  0  0  0  0  0  0
    5.3358   -0.5418   -0.6769 C   0  0  0  0  0  0  0  0  0  0  0  0
    5.1048    0.8464   -0.0631 C   0  0  0  0  0  0  0  0  0  0  0  0
    3.8545   -0.7777   -0.3494 C   0  0  0  0  0  0  0  0  0  0  0  0
    2.8658    1.1012    0.7890 C   0  0  0  0  0  0  0  0  0  0  0  0
    6.3932   -1.4671   -0.0446 C   0  0  0  0  0  0  0  0  0  0  0  0
    1.3976    0.9689    0.5424 C   0  0  0  0  0  0  0  0  0  0  0  0
    0.7007    1.8906   -0.2389 C   0  0  0  0  0  0  0  0  0  0  0  0
    0.7241   -0.1095    1.1161 C   0  0  0  0  0  0  0  0  0  0  0  0
   -0.6696    1.7338   -0.4466 C   0  0  0  0  0  0  0  0  0  0  0  0
   -0.6462   -0.2664    0.9084 C   0  0  0  0  0  0  0  0  0  0  0  0
   -1.3430    0.6552    0.1270 C   0  0  0  0  0  0  0  0  0  0  0  0
   -3.3057   -0.6225    0.5403 C   0  0  0  0  0  0  0  0  0  0  0  0
   -4.7518   -0.6558    0.1773 C   0  0  0  0  0  0  0  0  0  0  0  0
   -5.6869    0.0024    0.9760 C   0  0  0  0  0  0  0  0  0  0  0  0
   -5.1692   -1.3453   -0.9611 C   0  0  0  0  0  0  0  0  0  0  0  0
   -7.0395   -0.0289    0.6364 C   0  0  0  0  0  0  0  0  0  0  0  0
   -6.5217   -1.3766   -1.3007 C   0  0  0  0  0  0  0  0  0  0  0  0
   -7.4569   -0.7185   -0.5020 C   0  0  0  0  0  0  0  0  0  0  0  0
    5.4879   -0.4668   -1.7662 H   0  0  0  0  0  0  0  0  0  0  0  0
    5.3687    0.9174    1.0005 H   0  0  0  0  0  0  0  0  0  0  0  0
    5.5901    1.6722   -0.5929 H   0  0  0  0  0  0  0  0  0  0  0  0
    3.2930   -1.3142   -1.1211 H   0  0  0  0  0  0  0  0  0  0  0  0
    3.6890   -1.2857    0.6097 H   0  0  0  0  0  0  0  0  0  0  0  0
    3.0875    2.1489    1.0343 H   0  0  0  0  0  0  0  0  0  0  0  0
    3.1443    0.5577    1.7044 H   0  0  0  0  0  0  0  0  0  0  0  0
    1.2522   -0.8368    1.7274 H   0  0  0  0  0  0  0  0  0  0  0  0
    7.9269   -2.5599   -0.5578 H   0  0  0  0  0  0  0  0  0  0  0  0
   -1.2225    2.4466   -1.0541 H   0  0  0  0  0  0  0  0  0  0  0  0
   -1.1025   -1.1253    1.3878 H   0  0  0  0  0  0  0  0  0  0  0  0
   -2.8459   -1.5592    0.1976 H   0  0  0  0  0  0  0  0  0  0  0  0
   -3.2183   -0.5616    1.6334 H   0  0  0  0  0  0  0  0  0  0  0  0
   -5.3745    0.5453    1.8642 H   0  0  0  0  0  0  0  0  0  0  0  0
   -4.4507   -1.8602   -1.5934 H   0  0  0  0  0  0  0  0  0  0  0  0
   -7.7676    0.4841    1.2579 H   0  0  0  0  0  0  0  0  0  0  0  0
   -6.8467   -1.9130   -2.1874 H   0  0  0  0  0  0  0  0  0  0  0  0
   -8.5100   -0.7427   -0.7666 H   0  0  0  0  0  0  0  0  0  0  0  0
  1 12  1  0  0  0  0
  2 10  1  0  0  0  0
  2 32  1  0  0  0  0
  3 10  2  0  0  0  0
  4 16  1  0  0  0  0
  4 17  1  0  0  0  0
  5  7  1  0  0  0  0
  5  8  1  0  0  0  0
  5  9  1  0  0  0  0
  6  7  1  0  0  0  0
  6  8  1  0  0  0  0
  6 10  1  0  0  0  0
  6 24  1  0  0  0  0
  7 25  1  0  0  0  0
  7 26  1  0  0  0  0
  8 27  1  0  0  0  0
  8 28  1  0  0  0  0
  9 11  1  0  0  0  0
  9 29  1  0  0  0  0
  9 30  1  0  0  0  0
 11 12  2  0  0  0  0
 11 13  1  0  0  0  0
 12 14  1  0  0  0  0
 13 15  2  0  0  0  0
 13 31  1  0  0  0  0
 14 16  2  0  0  0  0
 14 33  1  0  0  0  0
 15 16  1  0  0  0  0
 15 34  1  0  0  0  0
 17 18  1  0  0  0  0
 17 35  1  0  0  0  0
 17 36  1  0  0  0  0
 18 19  2  0  0  0  0
 18 20  1  0  0  0  0
 19 21  1  0  0  0  0
 19 37  1  0  0  0  0
 20 22  2  0  0  0  0
 20 38  1  0  0  0  0
 21 23  2  0  0  0  0
 21 39  1  0  0  0  0
 22 23  1  0  0  0  0
 22 40  1  0  0  0  0
 23 41  1  0  0  0  0
M  END
> <PUBCHEM_COMPOUND_CID>
46872622

> <PUBCHEM_CONFORMER_RMSD>
0.8

> <PUBCHEM_CONFORMER_DIVERSEORDER>
1
113
87
50
158
168
69
190
155
33
68
105
85
37
129
204
72
172
93
40
38
177
173
43
156
86
125
20
170
89
49
110
193
179
11
145
153
150
22
141
154
128
192
203
44
127
138
100
160
149
76
201
91
27
200
166
131
92
133
51
53
165
185
26
28
45
142
67
120
55
30
103
116
36
75
88
23
183
77
195
164
194
130
97
157
62
136
78
64
152
115
198
144
106
117
148
13
99
108
161
162
66
32
54
135
29
95
171
186
132
52
112
167
46
57
90
58
80
189
188
143
174
107
146
137
39
59
163
199
191
63
202
79
123
181
184
101
16
109
140
96
178
118
71
48
41
180
134
47
15
151
197
84
42
21
124
73
122
111
56
61
98
121
31
187
147
104
119
18
7
17
169
175
94
19
159
9
65
8
35
4
2
81
14
25
60
34
182
74
139
83
114
70
102
3
176
5
10
196
24
82
6
12
126

> <PUBCHEM_MMFF94_PARTIAL_CHARGES>
32
1 -0.18
10 0.67
11 -0.14
12 0.18
13 -0.15
14 -0.15
15 -0.15
16 0.08
17 0.42
18 -0.14
19 -0.15
2 -0.65
20 -0.15
21 -0.15
22 -0.15
23 -0.15
3 -0.57
31 0.15
32 0.5
33 0.15
34 0.15
37 0.15
38 0.15
39 0.15
4 -0.36
40 0.15
41 0.15
5 -0.69
6 0.05
7 0.21
8 0.21
9 0.41

> <PUBCHEM_EFFECTIVE_ROTOR_COUNT>
6.8

> <PUBCHEM_PHARMACOPHORE_FEATURES>
8
1 2 acceptor
1 3 acceptor
1 4 acceptor
1 5 cation
3 2 3 10 anion
4 5 6 7 8 rings
6 11 12 13 14 15 16 rings
6 18 19 20 21 22 23 rings

> <PUBCHEM_HEAVY_ATOM_COUNT>
23

> <PUBCHEM_ATOM_DEF_STEREO_COUNT>
0

> <PUBCHEM_ATOM_UDEF_STEREO_COUNT>
0

> <PUBCHEM_BOND_DEF_STEREO_COUNT>
0

> <PUBCHEM_BOND_UDEF_STEREO_COUNT>
0

> <PUBCHEM_ISOTOPIC_ATOM_COUNT>
0

> <PUBCHEM_COMPONENT_COUNT>
1

> <PUBCHEM_CACTVS_TAUTO_COUNT>
1

> <PUBCHEM_CONFORMER_ID>
02CB382E00000001

> <PUBCHEM_MMFF94_ENERGY>
68.932

> <PUBCHEM_FEATURE_SELFOVERLAP>
40.656

> <PUBCHEM_SHAPE_FINGERPRINT>
10 15 13830127299951635506
10299344 5 18202286909074973367
106641 1 13398623970041563087
10670039 82 16370999668461193109
10693767 8 18335691745953582106
10753850 27 18408882919652519634
11524674 6 16056880247789147847
11796584 16 17274829098966103183
11991303 11 16515692186068234883
12166972 35 18272372009866582161
12236239 1 18202003278837050497
12670543 26 17748823003574636425
12760667 363 18411139121543958641
13533116 47 18271246122617774832
13540713 5 16952799554787841040
13668630 136 18334572495373083359
13673619 4 18411136918347548668
13685833 64 18343019991025756360
13862211 1 18411135835656704178
13885169 127 18131071489879165681
14216079 64 18411699867931522999
14251764 18 17846779632685913960
14294032 229 17024582288441963045
14347332 77 18188203183563045112
14933364 13 12973881511967335323
15183329 4 18334575737382412603
15188451 53 17775565342734104649
15198563 99 17531241708553950933
15706992 2 10665233596782857503
16994733 274 11963383051193863727
1768 124 17632860802565981886
18222031 100 18335978739820447024
18603816 31 17703778246058915167
18643901 69 18340215094167075302
20028762 73 18060700593775687430
20612939 158 18115028631788203269
21267235 1 18335426754849687648
21307412 95 18260841400939395690
21344244 78 16415757531749243720
21637258 2 18131346414566266168
21641784 216 16515680005598395045
221357 26 18040995150397733660
22224240 67 11527946750990267909
23035841 295 18413107264848939115
23081809 10 18131358548202623753
23522609 53 18126598740638723585
23536379 177 17846219986095191001
23559900 14 18262798609278122521
23569943 247 18337389314566029883
23576562 1 16734113526007213711
28498 318 18411981343472287877
29717793 49 18411983602509456853
3004659 81 18040154015902692904
3014063 24 18273495663304711366
34797466 226 14056722331262753443
397830 11 14907600372305456279
4340502 62 15123512501839165148
445580 37 15213295301570021775
465052 167 17918277571300493868
5219985 9 18410857646799811120
543368 44 7781520313631456239
559249 180 17988924488263509639
5718773 13 18338796698851588238
59682541 35 16056592167232187626
59755656 215 17967811635131029483
6438161 24 18187919574088159810
9971528 1 18339075012188978833

> <PUBCHEM_SHAPE_MULTIPOLES>
452.61
21.03
2.18
1.11
7.59
1.21
0.01
-15.02
3.02
-3.04
0.72
0.38
-0.14
-0.75

> <PUBCHEM_SHAPE_SELFOVERLAP>
956.63

> <PUBCHEM_SHAPE_VOLUME>
255

> <PUBCHEM_COORDINATE_TYPE>
2
5
10

$$$$
