44328612
  -OEChem-10062122053D

 49 51  0     0  0  0  0  0  0999 V2000
    0.6053    4.4834   -0.0037 O   0  0  0  0  0  0  0  0  0  0  0  0
    4.2796    1.8970    0.8852 O   0  0  0  0  0  0  0  0  0  0  0  0
   -0.2970    1.8051   -0.4471 N   0  0  0  0  0  0  0  0  0  0  0  0
    3.3469   -0.6629   -0.1763 N   0  0  0  0  0  0  0  0  0  0  0  0
    2.6592    3.5203    0.5098 N   0  0  0  0  0  0  0  0  0  0  0  0
   -8.3925   -2.4114    0.4098 N   0  0  0  0  0  0  0  0  0  0  0  0
   -3.2112    1.1939   -0.1550 C   0  0  0  0  0  0  0  0  0  0  0  0
   -4.5354    0.6051   -0.6464 C   0  0  0  0  0  0  0  0  0  0  0  0
   -2.6037    2.1391   -1.1962 C   0  0  0  0  0  0  0  0  0  0  0  0
   -5.1294   -0.3627    0.3797 C   0  0  0  0  0  0  0  0  0  0  0  0
   -1.3133    2.7955   -0.7117 C   0  0  0  0  0  0  0  0  0  0  0  0
   -6.4693   -0.9271   -0.1021 C   0  0  0  0  0  0  0  0  0  0  0  0
    0.9609    2.1085   -0.0505 C   0  0  0  0  0  0  0  0  0  0  0  0
    2.0358    1.3477    0.2117 C   0  0  0  0  0  0  0  0  0  0  0  0
    2.1334   -0.1109    0.1356 C   0  0  0  0  0  0  0  0  0  0  0  0
   -7.1183   -1.8923    0.8921 C   0  0  0  0  0  0  0  0  0  0  0  0
    3.2513   -2.0360   -0.2026 C   0  0  0  0  0  0  0  0  0  0  0  0
    1.9286   -2.3618    0.1044 C   0  0  0  0  0  0  0  0  0  0  0  0
    1.2350   -1.1373    0.3152 C   0  0  0  0  0  0  0  0  0  0  0  0
    1.3456    3.5258    0.1446 C   0  0  0  0  0  0  0  0  0  0  0  0
    3.1543    2.2512    0.5769 C   0  0  0  0  0  0  0  0  0  0  0  0
    4.2249   -3.0046   -0.4717 C   0  0  0  0  0  0  0  0  0  0  0  0
    1.5567   -3.7203    0.1457 C   0  0  0  0  0  0  0  0  0  0  0  0
    3.8328   -4.3455   -0.4256 C   0  0  0  0  0  0  0  0  0  0  0  0
    2.5198   -4.7001   -0.1218 C   0  0  0  0  0  0  0  0  0  0  0  0
   -3.3793    1.7395    0.7816 H   0  0  0  0  0  0  0  0  0  0  0  0
   -2.5190    0.3744    0.0691 H   0  0  0  0  0  0  0  0  0  0  0  0
   -5.2466    1.4168   -0.8423 H   0  0  0  0  0  0  0  0  0  0  0  0
   -4.3748    0.0791   -1.5954 H   0  0  0  0  0  0  0  0  0  0  0  0
   -2.4085    1.5822   -2.1214 H   0  0  0  0  0  0  0  0  0  0  0  0
   -3.3279    2.9254   -1.4419 H   0  0  0  0  0  0  0  0  0  0  0  0
   -4.4287   -1.1866    0.5609 H   0  0  0  0  0  0  0  0  0  0  0  0
   -5.2748    0.1556    1.3352 H   0  0  0  0  0  0  0  0  0  0  0  0
   -1.5398    3.3703    0.1941 H   0  0  0  0  0  0  0  0  0  0  0  0
   -0.9843    3.4802   -1.5021 H   0  0  0  0  0  0  0  0  0  0  0  0
   -6.3165   -1.4425   -1.0592 H   0  0  0  0  0  0  0  0  0  0  0  0
   -7.1590   -0.0959   -0.2983 H   0  0  0  0  0  0  0  0  0  0  0  0
   -0.4961    0.8303   -0.6424 H   0  0  0  0  0  0  0  0  0  0  0  0
   -6.4410   -2.7315    1.0865 H   0  0  0  0  0  0  0  0  0  0  0  0
   -7.2855   -1.3798    1.8457 H   0  0  0  0  0  0  0  0  0  0  0  0
    4.1957   -0.1471   -0.3656 H   0  0  0  0  0  0  0  0  0  0  0  0
    0.1909   -1.0306    0.5773 H   0  0  0  0  0  0  0  0  0  0  0  0
    3.1986    4.3543    0.7120 H   0  0  0  0  0  0  0  0  0  0  0  0
    5.2472   -2.7295   -0.7081 H   0  0  0  0  0  0  0  0  0  0  0  0
    0.5368   -4.0107    0.3811 H   0  0  0  0  0  0  0  0  0  0  0  0
   -8.7538   -3.0934    1.0753 H   0  0  0  0  0  0  0  0  0  0  0  0
   -8.2485   -2.9135   -0.4654 H   0  0  0  0  0  0  0  0  0  0  0  0
    4.5645   -5.1229   -0.6299 H   0  0  0  0  0  0  0  0  0  0  0  0
    2.2387   -5.7494   -0.0917 H   0  0  0  0  0  0  0  0  0  0  0  0
  1 20  2  0  0  0  0
  2 21  2  0  0  0  0
  3 11  1  0  0  0  0
  3 13  1  0  0  0  0
  3 38  1  0  0  0  0
  4 15  1  0  0  0  0
  4 17  1  0  0  0  0
  4 41  1  0  0  0  0
  5 20  1  0  0  0  0
  5 21  1  0  0  0  0
  5 43  1  0  0  0  0
  6 16  1  0  0  0  0
  6 46  1  0  0  0  0
  6 47  1  0  0  0  0
  7  8  1  0  0  0  0
  7  9  1  0  0  0  0
  7 26  1  0  0  0  0
  7 27  1  0  0  0  0
  8 10  1  0  0  0  0
  8 28  1  0  0  0  0
  8 29  1  0  0  0  0
  9 11  1  0  0  0  0
  9 30  1  0  0  0  0
  9 31  1  0  0  0  0
 10 12  1  0  0  0  0
 10 32  1  0  0  0  0
 10 33  1  0  0  0  0
 11 34  1  0  0  0  0
 11 35  1  0  0  0  0
 12 16  1  0  0  0  0
 12 36  1  0  0  0  0
 12 37  1  0  0  0  0
 13 14  2  0  0  0  0
 13 20  1  0  0  0  0
 14 15  1  0  0  0  0
 14 21  1  0  0  0  0
 15 19  2  0  0  0  0
 16 39  1  0  0  0  0
 16 40  1  0  0  0  0
 17 18  1  0  0  0  0
 17 22  2  0  0  0  0
 18 19  1  0  0  0  0
 18 23  2  0  0  0  0
 19 42  1  0  0  0  0
 22 24  1  0  0  0  0
 22 44  1  0  0  0  0
 23 25  1  0  0  0  0
 23 45  1  0  0  0  0
 24 25  2  0  0  0  0
 24 48  1  0  0  0  0
 25 49  1  0  0  0  0
M  END
> <PUBCHEM_COMPOUND_CID>
44328612

> <PUBCHEM_CONFORMER_RMSD>
1.2

> <PUBCHEM_CONFORMER_DIVERSEORDER>
1
15
43
62
2
65
58
27
34
52
6
45
44
57
31
66
47
23
11
29
48
33
10
51
12
69
53
9
36
68
67
56
30
38
39
64
28
60
5
3
61
16
35
49
54
63
55
20
21
50
40
14
24
25
26
13
8
37
42
4
59
19
7
18
22
41
46
32
17

> <PUBCHEM_MMFF94_PARTIAL_CHARGES>
29
1 -0.57
11 0.37
13 0.11
14 0.06
15 -0.2
16 0.27
17 -0.15
19 -0.15
2 -0.57
20 0.62
21 0.62
22 -0.15
23 -0.15
24 -0.15
25 -0.15
3 -0.87
38 0.4
4 0.03
41 0.27
42 0.15
43 0.37
44 0.15
45 0.15
46 0.36
47 0.36
48 0.15
49 0.15
5 -0.49
6 -0.99

> <PUBCHEM_EFFECTIVE_ROTOR_COUNT>
9.2

> <PUBCHEM_PHARMACOPHORE_FEATURES>
13
1 1 acceptor
1 2 acceptor
1 3 cation
1 3 donor
1 4 cation
1 4 donor
1 5 donor
1 6 cation
1 6 donor
5 4 15 17 18 19 rings
5 5 13 14 20 21 rings
5 7 8 9 10 12 hydrophobe
6 17 18 22 23 24 25 rings

> <PUBCHEM_HEAVY_ATOM_COUNT>
25

> <PUBCHEM_ATOM_DEF_STEREO_COUNT>
0

> <PUBCHEM_ATOM_UDEF_STEREO_COUNT>
0

> <PUBCHEM_BOND_DEF_STEREO_COUNT>
0

> <PUBCHEM_BOND_UDEF_STEREO_COUNT>
0

> <PUBCHEM_ISOTOPIC_ATOM_COUNT>
0

> <PUBCHEM_COMPONENT_COUNT>
1

> <PUBCHEM_CACTVS_TAUTO_COUNT>
8

> <PUBCHEM_CONFORMER_ID>
02A466A400000001

> <PUBCHEM_MMFF94_ENERGY>
34.2642

> <PUBCHEM_FEATURE_SELFOVERLAP>
66.063

> <PUBCHEM_SHAPE_FINGERPRINT>
11014199 57 18196374714914832433
11070050 100 17701801388223028208
114674 6 18260828211268292507
12293681 25 18042141936656314097
12553582 1 17546994244194015156
12623949 98 18341059562067940399
12969540 37 18264201410042558988
13533116 47 18341898550033562473
1361 2 18337954618799345019
138480 1 18339637833134683876
13955234 65 18271802488328179353
13989917 61 18264494065289360595
14863182 85 18336546109738600452
17138139 8 17533783693670040706
17492 89 18411981330724860801
1768 124 18265334105189219235
17859628 70 18410856598695824701
17909252 39 18339925892333156722
19301676 85 17762046641951270471
19319366 153 17985262121910068057
1979834 28 18265049313880571361
20028762 73 18055062422364146270
21133410 38 18055633065491107999
21197605 99 18047192140224904355
21344244 181 18195829559665494964
221490 88 18266453205350247740
23379529 103 17693940691764936142
23424784 1240 18407759240481191187
23466295 7 17763185743516838125
23569914 2 13627240007211107518
23845131 108 17477474774181364705
3421961 26 18340483374555950097
437795 96 17900552473652797971
5309563 4 18339362938195752207
613672 6 17977919338071467631
6376802 90 17754717360979464316
6441014 3 17977383837793378507
7970288 3 18122626046439988719
86090 222 17749396992317111659
9555976 147 17488758783692779299
9777508 108 17188964060776151224

> <PUBCHEM_SHAPE_MULTIPOLES>
482.83
14.15
6.99
0.83
39.39
0.98
-0.04
16.56
2
-7.08
0.01
0.32
-0.15
2.63

> <PUBCHEM_SHAPE_SELFOVERLAP>
1027.514

> <PUBCHEM_SHAPE_VOLUME>
271

> <PUBCHEM_COORDINATE_TYPE>
2
5
10

$$$$
