44375601
  -OEChem-10062121593D

 71 75  0     0  0  0  0  0  0999 V2000
    4.4742    3.1252    1.0854 S   0  0  0  0  0  0  0  0  0  0  0  0
   -4.9925    0.5484   -1.3380 O   0  0  0  0  0  0  0  0  0  0  0  0
   -4.6585   -2.6164    1.9600 O   0  0  0  0  0  0  0  0  0  0  0  0
   -0.3310    1.9958   -0.6163 N   0  0  0  0  0  0  0  0  0  0  0  0
   -5.1800   -1.1944    0.1871 N   0  0  0  0  0  0  0  0  0  0  0  0
    7.0846    3.4779    1.1688 N   0  0  0  0  0  0  0  0  0  0  0  0
    6.1953    2.8714   -0.9331 N   0  0  0  0  0  0  0  0  0  0  0  0
    1.7498   -2.9112    1.5383 C   0  0  0  0  0  0  0  0  0  0  0  0
    1.6441   -4.3214   -1.1760 C   0  0  0  0  0  0  0  0  0  0  0  0
    2.6883   -4.0669    1.1258 C   0  0  0  0  0  0  0  0  0  0  0  0
    2.0216   -5.0205    0.1489 C   0  0  0  0  0  0  0  0  0  0  0  0
    1.0294   -2.3074    0.3259 C   0  0  0  0  0  0  0  0  0  0  0  0
    0.9734   -2.9642   -0.9284 C   0  0  0  0  0  0  0  0  0  0  0  0
    0.6902   -3.4259    2.5377 C   0  0  0  0  0  0  0  0  0  0  0  0
    2.6341   -1.8678    2.2623 C   0  0  0  0  0  0  0  0  0  0  0  0
    2.9107   -4.0989   -2.0319 C   0  0  0  0  0  0  0  0  0  0  0  0
    0.7110   -5.2961   -1.9336 C   0  0  0  0  0  0  0  0  0  0  0  0
    0.3634   -1.0695    0.4686 C   0  0  0  0  0  0  0  0  0  0  0  0
    0.3061   -2.3225   -1.9958 C   0  0  0  0  0  0  0  0  0  0  0  0
   -0.3044   -0.4677   -0.5963 C   0  0  0  0  0  0  0  0  0  0  0  0
   -0.3261   -1.0914   -1.8326 C   0  0  0  0  0  0  0  0  0  0  0  0
   -0.9668    0.8005   -0.4130 C   0  0  0  0  0  0  0  0  0  0  0  0
   -2.2612    1.0687   -0.0314 C   0  0  0  0  0  0  0  0  0  0  0  0
   -1.1942    3.0402   -0.3722 C   0  0  0  0  0  0  0  0  0  0  0  0
   -2.4197    2.4825   -0.0013 C   0  0  0  0  0  0  0  0  0  0  0  0
    1.0491    2.1520   -1.0313 C   0  0  0  0  0  0  0  0  0  0  0  0
   -3.2767    0.0611    0.2818 C   0  0  0  0  0  0  0  0  0  0  0  0
    1.9528    2.5447    0.1414 C   0  0  0  0  0  0  0  0  0  0  0  0
   -0.9860    4.4218   -0.4504 C   0  0  0  0  0  0  0  0  0  0  0  0
   -3.4913    3.3440    0.3069 C   0  0  0  0  0  0  0  0  0  0  0  0
   -4.5705   -0.1327   -0.4191 C   0  0  0  0  0  0  0  0  0  0  0  0
   -3.2044   -0.8665    1.2466 C   0  0  0  0  0  0  0  0  0  0  0  0
   -2.0634    5.2566   -0.1400 C   0  0  0  0  0  0  0  0  0  0  0  0
   -3.2976    4.7282    0.2329 C   0  0  0  0  0  0  0  0  0  0  0  0
    3.4066    2.6613   -0.3083 C   0  0  0  0  0  0  0  0  0  0  0  0
   -4.4225   -1.6886    1.2065 C   0  0  0  0  0  0  0  0  0  0  0  0
    6.0620    3.1497    0.3243 C   0  0  0  0  0  0  0  0  0  0  0  0
    3.0111   -4.6268    2.0131 H   0  0  0  0  0  0  0  0  0  0  0  0
    3.6062   -3.6697    0.6744 H   0  0  0  0  0  0  0  0  0  0  0  0
    2.6951   -5.8648   -0.0476 H   0  0  0  0  0  0  0  0  0  0  0  0
    1.1298   -5.4544    0.6185 H   0  0  0  0  0  0  0  0  0  0  0  0
    1.1617   -3.9265    3.3911 H   0  0  0  0  0  0  0  0  0  0  0  0
   -0.0022   -4.1358    2.0724 H   0  0  0  0  0  0  0  0  0  0  0  0
    0.0822   -2.6057    2.9379 H   0  0  0  0  0  0  0  0  0  0  0  0
    3.2240   -2.3388    3.0577 H   0  0  0  0  0  0  0  0  0  0  0  0
    2.0462   -1.0745    2.7357 H   0  0  0  0  0  0  0  0  0  0  0  0
    3.3330   -1.3895    1.5658 H   0  0  0  0  0  0  0  0  0  0  0  0
    3.5948   -3.3770   -1.5726 H   0  0  0  0  0  0  0  0  0  0  0  0
    2.6614   -3.7115   -3.0270 H   0  0  0  0  0  0  0  0  0  0  0  0
    3.4595   -5.0364   -2.1771 H   0  0  0  0  0  0  0  0  0  0  0  0
    1.1639   -6.2919   -2.0100 H   0  0  0  0  0  0  0  0  0  0  0  0
    0.5018   -4.9671   -2.9569 H   0  0  0  0  0  0  0  0  0  0  0  0
   -0.2506   -5.4048   -1.4182 H   0  0  0  0  0  0  0  0  0  0  0  0
    0.3603   -0.5661    1.4336 H   0  0  0  0  0  0  0  0  0  0  0  0
    0.2749   -2.7763   -2.9831 H   0  0  0  0  0  0  0  0  0  0  0  0
   -0.8313   -0.6384   -2.6821 H   0  0  0  0  0  0  0  0  0  0  0  0
    1.0718    2.9212   -1.8126 H   0  0  0  0  0  0  0  0  0  0  0  0
    1.4023    1.2296   -1.5008 H   0  0  0  0  0  0  0  0  0  0  0  0
    1.8656    1.7897    0.9337 H   0  0  0  0  0  0  0  0  0  0  0  0
    1.6181    3.4954    0.5737 H   0  0  0  0  0  0  0  0  0  0  0  0
   -0.0311    4.8449   -0.7429 H   0  0  0  0  0  0  0  0  0  0  0  0
   -4.4600    2.9502    0.6009 H   0  0  0  0  0  0  0  0  0  0  0  0
   -2.4059   -1.0204    1.9541 H   0  0  0  0  0  0  0  0  0  0  0  0
   -1.9353    6.3348   -0.1916 H   0  0  0  0  0  0  0  0  0  0  0  0
   -4.1204    5.3975    0.4696 H   0  0  0  0  0  0  0  0  0  0  0  0
    3.4934    3.4199   -1.0936 H   0  0  0  0  0  0  0  0  0  0  0  0
    3.7449    1.7018   -0.7142 H   0  0  0  0  0  0  0  0  0  0  0  0
   -6.0872   -1.5597   -0.0795 H   0  0  0  0  0  0  0  0  0  0  0  0
    8.0444    3.5240    0.8445 H   0  0  0  0  0  0  0  0  0  0  0  0
    6.9134    3.6853    2.1467 H   0  0  0  0  0  0  0  0  0  0  0  0
    7.1878    2.9391   -1.1834 H   0  0  0  0  0  0  0  0  0  0  0  0
  1 35  1  0  0  0  0
  1 37  1  0  0  0  0
  2 31  2  0  0  0  0
  3 36  2  0  0  0  0
  4 22  1  0  0  0  0
  4 24  1  0  0  0  0
  4 26  1  0  0  0  0
  5 31  1  0  0  0  0
  5 36  1  0  0  0  0
  5 68  1  0  0  0  0
  6 37  1  0  0  0  0
  6 69  1  0  0  0  0
  6 70  1  0  0  0  0
  7 37  2  0  0  0  0
  7 71  1  0  0  0  0
  8 10  1  0  0  0  0
  8 12  1  0  0  0  0
  8 14  1  0  0  0  0
  8 15  1  0  0  0  0
  9 11  1  0  0  0  0
  9 13  1  0  0  0  0
  9 16  1  0  0  0  0
  9 17  1  0  0  0  0
 10 11  1  0  0  0  0
 10 38  1  0  0  0  0
 10 39  1  0  0  0  0
 11 40  1  0  0  0  0
 11 41  1  0  0  0  0
 12 13  2  0  0  0  0
 12 18  1  0  0  0  0
 13 19  1  0  0  0  0
 14 42  1  0  0  0  0
 14 43  1  0  0  0  0
 14 44  1  0  0  0  0
 15 45  1  0  0  0  0
 15 46  1  0  0  0  0
 15 47  1  0  0  0  0
 16 48  1  0  0  0  0
 16 49  1  0  0  0  0
 16 50  1  0  0  0  0
 17 51  1  0  0  0  0
 17 52  1  0  0  0  0
 17 53  1  0  0  0  0
 18 20  2  0  0  0  0
 18 54  1  0  0  0  0
 19 21  2  0  0  0  0
 19 55  1  0  0  0  0
 20 21  1  0  0  0  0
 20 22  1  0  0  0  0
 21 56  1  0  0  0  0
 22 23  2  0  0  0  0
 23 25  1  0  0  0  0
 23 27  1  0  0  0  0
 24 25  1  0  0  0  0
 24 29  2  0  0  0  0
 25 30  2  0  0  0  0
 26 28  1  0  0  0  0
 26 57  1  0  0  0  0
 26 58  1  0  0  0  0
 27 31  1  0  0  0  0
 27 32  2  0  0  0  0
 28 35  1  0  0  0  0
 28 59  1  0  0  0  0
 28 60  1  0  0  0  0
 29 33  1  0  0  0  0
 29 61  1  0  0  0  0
 30 34  1  0  0  0  0
 30 62  1  0  0  0  0
 32 36  1  0  0  0  0
 32 63  1  0  0  0  0
 33 34  2  0  0  0  0
 33 64  1  0  0  0  0
 34 65  1  0  0  0  0
 35 66  1  0  0  0  0
 35 67  1  0  0  0  0
M  END
> <PUBCHEM_COMPOUND_CID>
44375601

> <PUBCHEM_CONFORMER_RMSD>
1

> <PUBCHEM_CONFORMER_DIVERSEORDER>
1
64
14
103
40
119
7
118
43
92
97
102
31
91
114
99
33
10
24
42
70
75
49
5
90
110
111
44
29
18
55
37
108
67
84
83
60
56
93
116
104
95
19
117
8
79
66
58
35
62
105
51
61
52
20
57
16
41
39
82
48
88
81
77
25
72
80
23
50
12
45
100
13
32
38
115
30
112
107
106
59
15
54
11
86
9
94
21
28
36
47
46
73
69
71
109
34
98
22
78
27
26
2
89
101
85
68
63
53
3
87
96
113
4
17
6
65
76
74

> <PUBCHEM_MMFF94_PARTIAL_CHARGES>
41
1 -0.37
12 -0.14
13 -0.14
18 -0.15
19 -0.15
2 -0.57
20 0.05
21 -0.15
22 -0.2
23 -0.05
24 -0.15
26 0.26
27 0.06
29 -0.15
3 -0.57
30 -0.15
31 0.62
32 -0.14
33 -0.15
34 -0.15
35 0.23
36 0.62
37 0.64
4 0.05
5 -0.49
54 0.15
55 0.15
56 0.15
6 -0.85
61 0.15
62 0.15
63 0.15
64 0.15
65 0.15
68 0.37
69 0.4
7 -0.85
70 0.4
71 0.4
8 0.14
9 0.14

> <PUBCHEM_EFFECTIVE_ROTOR_COUNT>
8

> <PUBCHEM_PHARMACOPHORE_FEATURES>
14
1 2 acceptor
1 3 acceptor
1 4 cation
1 5 donor
1 6 donor
1 7 donor
3 6 7 37 cation
3 8 14 15 hydrophobe
3 9 16 17 hydrophobe
5 4 22 23 24 25 rings
5 5 27 31 32 36 rings
6 12 13 18 19 20 21 rings
6 24 25 29 30 33 34 rings
6 8 9 10 11 12 13 rings

> <PUBCHEM_HEAVY_ATOM_COUNT>
37

> <PUBCHEM_ATOM_DEF_STEREO_COUNT>
0

> <PUBCHEM_ATOM_UDEF_STEREO_COUNT>
0

> <PUBCHEM_BOND_DEF_STEREO_COUNT>
0

> <PUBCHEM_BOND_UDEF_STEREO_COUNT>
0

> <PUBCHEM_ISOTOPIC_ATOM_COUNT>
0

> <PUBCHEM_COMPONENT_COUNT>
1

> <PUBCHEM_CACTVS_TAUTO_COUNT>
3

> <PUBCHEM_CONFORMER_ID>
02A51E3100000001

> <PUBCHEM_MMFF94_ENERGY>
100.8998

> <PUBCHEM_FEATURE_SELFOVERLAP>
71.195

> <PUBCHEM_SHAPE_FINGERPRINT>
102385 1 18266742368355822141
1100329 8 17688030133971094521
11135926 11 18409442627201558077
14068700 686 18411704283421887708
14674994 50 17767417042829176144
14866123 147 17906449188502415866
15200665 1 18051129486995279920
15439362 3 18050562937517204372
15684970 41 17830741954156790946
15968369 153 18265889349786520552
16728300 4 17896299484569622008
19311894 1 17908693283191926854
20028762 73 17693954285848150111
20600515 1 17401750939765397808
21133665 82 18410579505498450908
21703447 108 18339646625069772095
23559900 14 17333088620507388367
3383291 50 18194967568128736944
5171179 24 18196385735837739526
6669772 16 18200883984352636862
9896288 288 18410857676675224264

> <PUBCHEM_SHAPE_MULTIPOLES>
733.63
10.2
9.34
1.9
2.92
11.21
-0.3
2.76
-0.83
-10.51
-0.83
-1.82
-2.15
2.58

> <PUBCHEM_SHAPE_SELFOVERLAP>
1592.148

> <PUBCHEM_SHAPE_VOLUME>
409.1

> <PUBCHEM_COORDINATE_TYPE>
2
5
10

$$$$
