44364200
  -OEChem-10062121593D

 52 59  0     1  0  0  0  0  0999 V2000
   -2.2991   -4.0815    0.0854 O   0  0  0  0  0  0  0  0  0  0  0  0
    2.3005   -4.0807    0.0874 O   0  0  0  0  0  0  0  0  0  0  0  0
   -0.0002    2.9672   -1.0249 N   0  0  0  0  0  0  0  0  0  0  0  0
   -1.4893    1.3494   -0.1669 N   0  0  0  0  0  0  0  0  0  0  0  0
    1.4890    1.3498   -0.1663 N   0  0  0  0  0  0  0  0  0  0  0  0
    0.0007   -4.4593    0.1046 N   0  0  0  0  0  0  0  0  0  0  0  0
   -1.2104    2.7767   -0.2317 C   0  0  1  0  0  0  0  0  0  0  0  0
    1.2096    2.7770   -0.2308 C   0  0  2  0  0  0  0  0  0  0  0  0
   -1.2416    3.4425    1.1538 C   0  0  0  0  0  0  0  0  0  0  0  0
    1.2395    3.4423    1.1549 C   0  0  0  0  0  0  0  0  0  0  0  0
   -0.7123    0.2240   -0.1113 C   0  0  0  0  0  0  0  0  0  0  0  0
    0.7123    0.2242   -0.1111 C   0  0  0  0  0  0  0  0  0  0  0  0
   -0.0015    3.1309    1.9747 C   0  0  0  0  0  0  0  0  0  0  0  0
   -1.3322   -1.0893   -0.0489 C   0  0  0  0  0  0  0  0  0  0  0  0
    1.3326   -1.0888   -0.0487 C   0  0  0  0  0  0  0  0  0  0  0  0
   -2.7804    0.8042   -0.1234 C   0  0  0  0  0  0  0  0  0  0  0  0
    2.7803    0.8050   -0.1230 C   0  0  0  0  0  0  0  0  0  0  0  0
   -2.7206   -0.6196   -0.0623 C   0  0  0  0  0  0  0  0  0  0  0  0
    2.7208   -0.6189   -0.0624 C   0  0  0  0  0  0  0  0  0  0  0  0
   -0.6891   -2.3205    0.0053 C   0  0  0  0  0  0  0  0  0  0  0  0
    0.6899   -2.3202    0.0056 C   0  0  0  0  0  0  0  0  0  0  0  0
    0.0001    4.2823   -1.6750 C   0  0  0  0  0  0  0  0  0  0  0  0
   -4.0236    1.4742   -0.1281 C   0  0  0  0  0  0  0  0  0  0  0  0
    4.0234    1.4754   -0.1276 C   0  0  0  0  0  0  0  0  0  0  0  0
   -1.1458   -3.7014    0.0689 C   0  0  0  0  0  0  0  0  0  0  0  0
    1.1469   -3.7009    0.0697 C   0  0  0  0  0  0  0  0  0  0  0  0
   -3.9534   -1.3206   -0.0193 C   0  0  0  0  0  0  0  0  0  0  0  0
    3.9538   -1.3195   -0.0201 C   0  0  0  0  0  0  0  0  0  0  0  0
   -5.2079    0.7394   -0.0828 C   0  0  0  0  0  0  0  0  0  0  0  0
    5.2077    0.7408   -0.0829 C   0  0  0  0  0  0  0  0  0  0  0  0
   -5.1752   -0.6427   -0.0310 C   0  0  0  0  0  0  0  0  0  0  0  0
    5.1755   -0.6414   -0.0317 C   0  0  0  0  0  0  0  0  0  0  0  0
   -2.0473    3.1885   -0.8097 H   0  0  0  0  0  0  0  0  0  0  0  0
    2.0468    3.1894   -0.8080 H   0  0  0  0  0  0  0  0  0  0  0  0
   -2.1313    3.1350    1.7161 H   0  0  0  0  0  0  0  0  0  0  0  0
   -1.3160    4.5301    1.0265 H   0  0  0  0  0  0  0  0  0  0  0  0
    1.3142    4.5300    1.0279 H   0  0  0  0  0  0  0  0  0  0  0  0
    2.1285    3.1345    1.7180 H   0  0  0  0  0  0  0  0  0  0  0  0
   -0.0018    3.7272    2.8941 H   0  0  0  0  0  0  0  0  0  0  0  0
   -0.0018    2.0791    2.2821 H   0  0  0  0  0  0  0  0  0  0  0  0
   -0.0002    5.1102   -0.9581 H   0  0  0  0  0  0  0  0  0  0  0  0
   -0.8752    4.3908   -2.3257 H   0  0  0  0  0  0  0  0  0  0  0  0
    0.8757    4.3909   -2.3251 H   0  0  0  0  0  0  0  0  0  0  0  0
   -4.0774    2.5585   -0.1632 H   0  0  0  0  0  0  0  0  0  0  0  0
    4.0769    2.5596   -0.1624 H   0  0  0  0  0  0  0  0  0  0  0  0
   -3.9761   -2.4035    0.0266 H   0  0  0  0  0  0  0  0  0  0  0  0
    3.9767   -2.4024    0.0253 H   0  0  0  0  0  0  0  0  0  0  0  0
    0.0008   -5.4721    0.1513 H   0  0  0  0  0  0  0  0  0  0  0  0
   -6.1624    1.2586   -0.0876 H   0  0  0  0  0  0  0  0  0  0  0  0
    6.1621    1.2601   -0.0876 H   0  0  0  0  0  0  0  0  0  0  0  0
   -6.1032   -1.2066    0.0039 H   0  0  0  0  0  0  0  0  0  0  0  0
    6.1037   -1.2050    0.0028 H   0  0  0  0  0  0  0  0  0  0  0  0
  1 25  2  0  0  0  0
  2 26  2  0  0  0  0
  3  7  1  0  0  0  0
  3  8  1  0  0  0  0
  3 22  1  0  0  0  0
  4  7  1  0  0  0  0
  4 11  1  0  0  0  0
  4 16  1  0  0  0  0
  5  8  1  0  0  0  0
  5 12  1  0  0  0  0
  5 17  1  0  0  0  0
  6 25  1  0  0  0  0
  6 26  1  0  0  0  0
  6 48  1  0  0  0  0
  7  9  1  0  0  0  0
  7 33  1  0  0  0  0
  8 10  1  0  0  0  0
  8 34  1  0  0  0  0
  9 13  1  0  0  0  0
  9 35  1  0  0  0  0
  9 36  1  0  0  0  0
 10 13  1  0  0  0  0
 10 37  1  0  0  0  0
 10 38  1  0  0  0  0
 11 12  2  0  0  0  0
 11 14  1  0  0  0  0
 12 15  1  0  0  0  0
 13 39  1  0  0  0  0
 13 40  1  0  0  0  0
 14 18  1  0  0  0  0
 14 20  2  0  0  0  0
 15 19  1  0  0  0  0
 15 21  2  0  0  0  0
 16 18  1  0  0  0  0
 16 23  2  0  0  0  0
 17 19  1  0  0  0  0
 17 24  2  0  0  0  0
 18 27  2  0  0  0  0
 19 28  2  0  0  0  0
 20 21  1  0  0  0  0
 20 25  1  0  0  0  0
 21 26  1  0  0  0  0
 22 41  1  0  0  0  0
 22 42  1  0  0  0  0
 22 43  1  0  0  0  0
 23 29  1  0  0  0  0
 23 44  1  0  0  0  0
 24 30  1  0  0  0  0
 24 45  1  0  0  0  0
 27 31  1  0  0  0  0
 27 46  1  0  0  0  0
 28 32  1  0  0  0  0
 28 47  1  0  0  0  0
 29 31  2  0  0  0  0
 29 49  1  0  0  0  0
 30 32  2  0  0  0  0
 30 50  1  0  0  0  0
 31 51  1  0  0  0  0
 32 52  1  0  0  0  0
M  END
> <PUBCHEM_COMPOUND_CID>
44364200

> <PUBCHEM_CONFORMER_RMSD>
0.6

> <PUBCHEM_CONFORMER_DIVERSEORDER>
1

> <PUBCHEM_MMFF94_PARTIAL_CHARGES>
36
1 -0.57
11 -0.05
12 -0.05
14 -0.01
15 -0.01
16 -0.15
17 -0.15
2 -0.57
20 0.09
21 0.09
22 0.27
23 -0.15
24 -0.15
25 0.54
26 0.54
27 -0.15
28 -0.15
29 -0.15
3 -0.81
30 -0.15
31 -0.15
32 -0.15
4 -0.04
44 0.15
45 0.15
46 0.15
47 0.15
48 0.37
49 0.15
5 -0.04
50 0.15
51 0.15
52 0.15
6 -0.49
7 0.53
8 0.53

> <PUBCHEM_EFFECTIVE_ROTOR_COUNT>
1

> <PUBCHEM_PHARMACOPHORE_FEATURES>
14
1 1 acceptor
1 2 acceptor
1 3 cation
1 4 cation
1 5 cation
1 6 donor
5 4 11 14 16 18 rings
5 5 12 15 17 19 rings
5 6 20 21 25 26 rings
6 11 12 14 15 20 21 rings
6 16 18 23 27 29 31 rings
6 17 19 24 28 30 32 rings
6 3 7 8 9 10 13 rings
7 3 4 5 7 8 11 12 rings

> <PUBCHEM_HEAVY_ATOM_COUNT>
32

> <PUBCHEM_ATOM_DEF_STEREO_COUNT>
2

> <PUBCHEM_ATOM_UDEF_STEREO_COUNT>
0

> <PUBCHEM_BOND_DEF_STEREO_COUNT>
0

> <PUBCHEM_BOND_UDEF_STEREO_COUNT>
0

> <PUBCHEM_ISOTOPIC_ATOM_COUNT>
0

> <PUBCHEM_COMPONENT_COUNT>
1

> <PUBCHEM_CACTVS_TAUTO_COUNT>
2

> <PUBCHEM_CONFORMER_ID>
02A4F1A800000001

> <PUBCHEM_MMFF94_ENERGY>
126.8964

> <PUBCHEM_FEATURE_SELFOVERLAP>
72.394

> <PUBCHEM_SHAPE_FINGERPRINT>
10006869 2 17912079452698998305
10190108 129 17834715653888613921
10411042 1 17833833046789813094
10675989 125 17613989700194202021
10930396 42 18123435472135248936
10967382 1 18410292497342975959
1100329 8 18339643472173308563
11513181 2 17915457182189003023
11578080 2 16770693241942603754
12788726 201 18271535225709155912
13140716 1 18268428121190490810
13402501 40 18410573993741405253
138480 1 17185313145543134846
13911987 19 18334861627390143340
14178342 30 17691957177383627738
14223421 5 17976538312696308740
14790565 3 18410300206772628372
15320467 1 18410293622571270182
15927050 60 17765154260251650564
16728300 4 17462817936400984458
19591789 44 18338236089042906859
19930381 70 18337670789557810279
20028762 73 18272647973993966231
20510252 161 18341894048359391832
20600515 1 18340496658958570364
20642791 178 18261688059690222053
20775438 99 17048476110305480159
20905425 154 18052257297634756102
22113638 7 18336545022647007780
23559900 14 17762612197883976084
283562 15 18340770321484578352
3178227 256 18336841883046067875
335352 9 18410293652641400919
3380486 77 18336281109950202796
350125 39 18050569543318336274
3882209 13 16902675401401595230
392239 28 18341898437435907098
469060 322 18264780873781626512
484989 97 18120652694126025647
5171179 24 17769369766394442370
5486654 2 18410859867102412756
57527358 35 15575819617864446300
57527585 103 17462886140027743323
59755656 215 18338520729495294454
6004065 56 18200017569021033327

> <PUBCHEM_SHAPE_MULTIPOLES>
626.88
8.05
6.11
0.94
0
2.13
-0.15
0.73
0.41
0
-0.3
0
-1.18
0

> <PUBCHEM_SHAPE_SELFOVERLAP>
1468.197

> <PUBCHEM_SHAPE_VOLUME>
316.5

> <PUBCHEM_COORDINATE_TYPE>
2
5
10

$$$$
