9863786
  -OEChem-10052115163D

 46 49  0     1  0  0  0  0  0999 V2000
   -0.7769   -5.3413   -0.4733 F   0  0  0  0  0  0  0  0  0  0  0  0
    5.9396   -0.3144   -1.3480 O   0  0  0  0  0  0  0  0  0  0  0  0
   -1.3982    2.2486    0.5938 N   0  0  0  0  0  0  0  0  0  0  0  0
   -3.9498    0.4678   -1.0677 N   0  0  0  0  0  0  0  0  0  0  0  0
    3.9804    0.6972    0.4028 N   0  0  0  0  0  0  0  0  0  0  0  0
    2.9015    0.3145    2.4921 N   0  0  0  0  0  0  0  0  0  0  0  0
   -1.7243    0.1192    0.0329 C   0  0  0  0  0  0  0  0  0  0  0  0
   -0.8535    0.9911    0.6483 C   0  0  0  0  0  0  0  0  0  0  0  0
   -2.8356    0.8782   -0.4095 C   0  0  0  0  0  0  0  0  0  0  0  0
   -2.6113    2.2054   -0.0489 C   0  0  0  0  0  0  0  0  0  0  0  0
    0.4287    0.7618    1.2773 C   0  0  0  0  0  0  0  0  0  0  0  0
   -1.4797   -1.2904   -0.0978 C   0  0  0  0  0  0  0  0  0  0  0  0
    1.5946    0.8420    0.5278 C   0  0  0  0  0  0  0  0  0  0  0  0
   -3.5369    3.2034   -0.3503 C   0  0  0  0  0  0  0  0  0  0  0  0
    2.7966    0.6115    1.1774 C   0  0  0  0  0  0  0  0  0  0  0  0
    0.4922    0.4593    2.6308 C   0  0  0  0  0  0  0  0  0  0  0  0
    3.9685    1.0058   -0.9899 C   0  0  0  0  0  0  0  0  0  0  0  0
    5.3938    0.9897   -1.5368 C   0  0  2  0  0  0  0  0  0  0  0  0
   -0.8082   -1.7801   -1.2175 C   0  0  0  0  0  0  0  0  0  0  0  0
   -1.9141   -2.1679    0.8952 C   0  0  0  0  0  0  0  0  0  0  0  0
   -4.6831    2.7951   -1.0249 C   0  0  0  0  0  0  0  0  0  0  0  0
   -4.8321    1.4534   -1.3487 C   0  0  0  0  0  0  0  0  0  0  0  0
    1.7435    0.2459    3.1864 C   0  0  0  0  0  0  0  0  0  0  0  0
   -0.5707   -3.1488   -1.3444 C   0  0  0  0  0  0  0  0  0  0  0  0
   -1.6766   -3.5365    0.7683 C   0  0  0  0  0  0  0  0  0  0  0  0
    5.4163    1.3165   -3.0240 C   0  0  0  0  0  0  0  0  0  0  0  0
   -1.0049   -4.0270   -0.3514 C   0  0  0  0  0  0  0  0  0  0  0  0
   -0.9733    3.0856    0.9694 H   0  0  0  0  0  0  0  0  0  0  0  0
    1.5215    1.0804   -0.5278 H   0  0  0  0  0  0  0  0  0  0  0  0
   -3.3755    4.2393   -0.0760 H   0  0  0  0  0  0  0  0  0  0  0  0
   -0.3986    0.3874    3.2463 H   0  0  0  0  0  0  0  0  0  0  0  0
    3.5328    1.9966   -1.1660 H   0  0  0  0  0  0  0  0  0  0  0  0
    3.3803    0.2548   -1.5326 H   0  0  0  0  0  0  0  0  0  0  0  0
    6.0216    1.7000   -0.9863 H   0  0  0  0  0  0  0  0  0  0  0  0
    4.8523    0.5258    0.8902 H   0  0  0  0  0  0  0  0  0  0  0  0
   -0.4626   -1.1091   -2.0005 H   0  0  0  0  0  0  0  0  0  0  0  0
   -2.4390   -1.8020    1.7745 H   0  0  0  0  0  0  0  0  0  0  0  0
   -5.4488    3.5154   -1.2935 H   0  0  0  0  0  0  0  0  0  0  0  0
   -5.7226    1.1210   -1.8756 H   0  0  0  0  0  0  0  0  0  0  0  0
    1.8501    0.0058    4.2391 H   0  0  0  0  0  0  0  0  0  0  0  0
   -0.0476   -3.5310   -2.2159 H   0  0  0  0  0  0  0  0  0  0  0  0
   -2.0143   -4.2206    1.5412 H   0  0  0  0  0  0  0  0  0  0  0  0
    6.4424    1.2879   -3.4064 H   0  0  0  0  0  0  0  0  0  0  0  0
    4.8471    0.5770   -3.5980 H   0  0  0  0  0  0  0  0  0  0  0  0
    5.0011    2.3098   -3.2192 H   0  0  0  0  0  0  0  0  0  0  0  0
    6.8507   -0.3029   -1.6878 H   0  0  0  0  0  0  0  0  0  0  0  0
  1 27  1  0  0  0  0
  2 18  1  0  0  0  0
  2 46  1  0  0  0  0
  3  8  1  0  0  0  0
  3 10  1  0  0  0  0
  3 28  1  0  0  0  0
  4  9  1  0  0  0  0
  4 22  2  0  0  0  0
  5 15  1  0  0  0  0
  5 17  1  0  0  0  0
  5 35  1  0  0  0  0
  6 15  2  0  0  0  0
  6 23  1  0  0  0  0
  7  8  2  0  0  0  0
  7  9  1  0  0  0  0
  7 12  1  0  0  0  0
  8 11  1  0  0  0  0
  9 10  2  0  0  0  0
 10 14  1  0  0  0  0
 11 13  2  0  0  0  0
 11 16  1  0  0  0  0
 12 19  2  0  0  0  0
 12 20  1  0  0  0  0
 13 15  1  0  0  0  0
 13 29  1  0  0  0  0
 14 21  2  0  0  0  0
 14 30  1  0  0  0  0
 16 23  2  0  0  0  0
 16 31  1  0  0  0  0
 17 18  1  0  0  0  0
 17 32  1  0  0  0  0
 17 33  1  0  0  0  0
 18 26  1  0  0  0  0
 18 34  1  0  0  0  0
 19 24  1  0  0  0  0
 19 36  1  0  0  0  0
 20 25  2  0  0  0  0
 20 37  1  0  0  0  0
 21 22  1  0  0  0  0
 21 38  1  0  0  0  0
 22 39  1  0  0  0  0
 23 40  1  0  0  0  0
 24 27  2  0  0  0  0
 24 41  1  0  0  0  0
 25 27  1  0  0  0  0
 25 42  1  0  0  0  0
 26 43  1  0  0  0  0
 26 44  1  0  0  0  0
 26 45  1  0  0  0  0
M  END
> <PUBCHEM_COMPOUND_CID>
9863786

> <PUBCHEM_CONFORMER_RMSD>
0.8

> <PUBCHEM_CONFORMER_DIVERSEORDER>
1
20
44
32
29
16
22
31
10
38
9
14
46
36
45
34
30
24
49
37
28
42
27
35
39
41
13
15
17
40
33
18
19
48
43
6
47
8
21
12
25
23
4
2
26
3
11
7
5

> <PUBCHEM_MMFF94_PARTIAL_CHARGES>
39
1 -0.19
10 -0.15
11 0.05
12 0.05
13 -0.15
14 -0.15
15 0.41
16 -0.15
17 0.37
18 0.28
19 -0.15
2 -0.68
20 -0.15
21 -0.15
22 0.16
23 0.16
24 -0.15
25 -0.15
27 0.19
28 0.27
29 0.15
3 0.03
30 0.15
31 0.15
35 0.4
36 0.15
37 0.15
38 0.15
39 0.15
4 -0.57
40 0.15
41 0.15
42 0.15
46 0.4
5 -0.87
6 -0.62
7 -0.05
8 -0.2
9 0.26

> <PUBCHEM_EFFECTIVE_ROTOR_COUNT>
5

> <PUBCHEM_PHARMACOPHORE_FEATURES>
11
1 2 acceptor
1 2 donor
1 3 cation
1 3 donor
1 4 acceptor
1 5 donor
3 5 6 15 cation
5 3 7 8 9 10 rings
6 12 19 20 24 25 27 rings
6 4 9 10 14 21 22 rings
6 6 11 13 15 16 23 rings

> <PUBCHEM_HEAVY_ATOM_COUNT>
27

> <PUBCHEM_ATOM_DEF_STEREO_COUNT>
1

> <PUBCHEM_ATOM_UDEF_STEREO_COUNT>
0

> <PUBCHEM_BOND_DEF_STEREO_COUNT>
0

> <PUBCHEM_BOND_UDEF_STEREO_COUNT>
0

> <PUBCHEM_ISOTOPIC_ATOM_COUNT>
0

> <PUBCHEM_COMPONENT_COUNT>
1

> <PUBCHEM_CACTVS_TAUTO_COUNT>
5

> <PUBCHEM_CONFORMER_ID>
0096826A00000001

> <PUBCHEM_MMFF94_ENERGY>
75.2488

> <PUBCHEM_FEATURE_SELFOVERLAP>
55.937

> <PUBCHEM_SHAPE_FINGERPRINT>
10305334 12 14568225117502428582
105312 117 18408326570520754092
107951 10 18186810157633062602
11049842 53 18194110816552418290
11578080 2 18052001138155585785
12553582 1 17687446271753539043
12714826 92 18057615454436789114
12788726 201 18042958977218325403
12895836 83 18334859428604640932
13257819 37 18408608054572403509
133893 2 17693091869220335705
13785724 45 17402338560412744751
13941206 138 18336549321888659110
14114211 68 18197222456097942717
14251757 5 18337394966631265903
14932701 244 17318741536121790164
15163728 17 18117844296146123333
15342168 16 16081091476347216360
15664445 248 16752396410789005455
16752209 62 18194094491366135507
19309040 13 16952853586024557822
19315092 285 12750662982296992502
20028762 73 17841124939897585751
20567600 347 18197754654090422679
20642791 178 18050561837946437123
20771845 171 18043797698895663701
21344244 181 17274528928091692687
21344244 78 8558219845017713071
21756936 100 17240777215459449152
21781051 124 18410290316143187483
22849339 104 18340494468588332030
22956985 138 17761184650357438907
23366157 5 17760356696478303833
23419403 2 17616291029380847763
23559900 14 17335592252276836989
23598288 3 18041555944377637139
25265897 201 17976298795540314252
27425 322 17386019363987281356
3298306 158 18200585904446926766
340366 18 18188767228896845530
4015057 19 16773791532903228976
437795 70 17985252222147627783
484985 159 17343821224632218590
563151 40 17915480323831515505
57527295 17 17059497309650063261
58260988 647 16343705482287260567
6138700 20 17767387003533210306
633830 44 17022910077553267744
70634741 139 18057063483284803740
7364860 26 17482238563195493281
81228 2 17550345929772027875

> <PUBCHEM_SHAPE_MULTIPOLES>
522.58
9.74
4.68
2.51
11.86
7.23
-1.08
-9.07
8.04
-5.64
1.64
3.59
-0.57
-0.06

> <PUBCHEM_SHAPE_SELFOVERLAP>
1157.309

> <PUBCHEM_SHAPE_VOLUME>
282.1

> <PUBCHEM_COORDINATE_TYPE>
2
5
10

$$$$
