10450005
  -OEChem-10062121573D

 52 55  0     0  0  0  0  0  0999 V2000
    4.2797   -2.3349    0.1908 O   0  0  0  0  0  0  0  0  0  0  0  0
    4.3040    2.2835    0.1916 O   0  0  0  0  0  0  0  0  0  0  0  0
   -0.9936   -1.4190   -0.5926 N   0  0  0  0  0  0  0  0  0  0  0  0
   -0.9788    1.4220   -0.5945 N   0  0  0  0  0  0  0  0  0  0  0  0
    4.6927   -0.0278    0.2507 N   0  0  0  0  0  0  0  0  0  0  0  0
   -1.0803   -2.8671   -0.6035 C   0  0  0  0  0  0  0  0  0  0  0  0
   -1.0306    2.8717   -0.6044 C   0  0  0  0  0  0  0  0  0  0  0  0
   -1.0318   -3.4075    0.8292 C   0  0  0  0  0  0  0  0  0  0  0  0
   -2.3534   -3.3125   -1.3298 C   0  0  0  0  0  0  0  0  0  0  0  0
   -2.2928    3.3479   -1.3305 C   0  0  0  0  0  0  0  0  0  0  0  0
   -0.9693    3.4101    0.8285 C   0  0  0  0  0  0  0  0  0  0  0  0
   -2.3070   -3.1090    1.6177 C   0  0  0  0  0  0  0  0  0  0  0  0
   -3.6240   -3.0142   -0.5335 C   0  0  0  0  0  0  0  0  0  0  0  0
   -3.5702    3.0798   -0.5344 C   0  0  0  0  0  0  0  0  0  0  0  0
   -2.2513    3.1417    1.6169 C   0  0  0  0  0  0  0  0  0  0  0  0
   -3.5521   -3.5878    0.8781 C   0  0  0  0  0  0  0  0  0  0  0  0
   -3.4846    3.6507    0.8774 C   0  0  0  0  0  0  0  0  0  0  0  0
    0.1900   -0.7261   -0.4173 C   0  0  0  0  0  0  0  0  0  0  0  0
    0.2258    0.7007   -0.4141 C   0  0  0  0  0  0  0  0  0  0  0  0
    1.4001   -1.4350   -0.2364 C   0  0  0  0  0  0  0  0  0  0  0  0
    1.4152    1.4138   -0.2381 C   0  0  0  0  0  0  0  0  0  0  0  0
    2.5614   -0.7108   -0.0646 C   0  0  0  0  0  0  0  0  0  0  0  0
    2.5688    0.6776   -0.0655 C   0  0  0  0  0  0  0  0  0  0  0  0
    3.9350   -1.1698    0.1398 C   0  0  0  0  0  0  0  0  0  0  0  0
    3.9471    1.1221    0.1386 C   0  0  0  0  0  0  0  0  0  0  0  0
   -0.2517   -3.2885   -1.1853 H   0  0  0  0  0  0  0  0  0  0  0  0
   -0.1949    3.2748   -1.1887 H   0  0  0  0  0  0  0  0  0  0  0  0
   -0.1757   -3.0175    1.3894 H   0  0  0  0  0  0  0  0  0  0  0  0
   -0.8996   -4.4966    0.7856 H   0  0  0  0  0  0  0  0  0  0  0  0
   -2.2999   -4.3939   -1.5107 H   0  0  0  0  0  0  0  0  0  0  0  0
   -2.4208   -2.8303   -2.3127 H   0  0  0  0  0  0  0  0  0  0  0  0
   -2.3717    2.8676   -2.3135 H   0  0  0  0  0  0  0  0  0  0  0  0
   -2.2135    4.4278   -1.5111 H   0  0  0  0  0  0  0  0  0  0  0  0
   -0.8112    4.4959    0.7853 H   0  0  0  0  0  0  0  0  0  0  0  0
   -0.1236    3.0001    1.3899 H   0  0  0  0  0  0  0  0  0  0  0  0
   -2.3834   -2.0308    1.8044 H   0  0  0  0  0  0  0  0  0  0  0  0
   -2.2537   -3.5965    2.5979 H   0  0  0  0  0  0  0  0  0  0  0  0
   -4.4884   -3.4398   -1.0562 H   0  0  0  0  0  0  0  0  0  0  0  0
   -3.7929   -1.9323   -0.4816 H   0  0  0  0  0  0  0  0  0  0  0  0
   -3.7646    2.0021   -0.4833 H   0  0  0  0  0  0  0  0  0  0  0  0
   -4.4242    3.5262   -1.0569 H   0  0  0  0  0  0  0  0  0  0  0  0
   -2.1865    3.6272    2.5974 H   0  0  0  0  0  0  0  0  0  0  0  0
   -2.3534    2.0656    1.8030 H   0  0  0  0  0  0  0  0  0  0  0  0
   -3.5464   -4.6836    0.8262 H   0  0  0  0  0  0  0  0  0  0  0  0
   -4.4483   -3.3001    1.4393 H   0  0  0  0  0  0  0  0  0  0  0  0
   -3.4525    4.7461    0.8263 H   0  0  0  0  0  0  0  0  0  0  0  0
   -4.3873    3.3842    1.4385 H   0  0  0  0  0  0  0  0  0  0  0  0
   -1.8556   -0.8959   -0.6607 H   0  0  0  0  0  0  0  0  0  0  0  0
   -1.8471    0.9064   -0.6281 H   0  0  0  0  0  0  0  0  0  0  0  0
    1.4631   -2.5163   -0.2287 H   0  0  0  0  0  0  0  0  0  0  0  0
    1.4883    2.4932   -0.2318 H   0  0  0  0  0  0  0  0  0  0  0  0
    5.6956   -0.0330    0.3996 H   0  0  0  0  0  0  0  0  0  0  0  0
  1 24  2  0  0  0  0
  2 25  2  0  0  0  0
  3  6  1  0  0  0  0
  3 18  1  0  0  0  0
  3 48  1  0  0  0  0
  4  7  1  0  0  0  0
  4 19  1  0  0  0  0
  4 49  1  0  0  0  0
  5 24  1  0  0  0  0
  5 25  1  0  0  0  0
  5 52  1  0  0  0  0
  6  8  1  0  0  0  0
  6  9  1  0  0  0  0
  6 26  1  0  0  0  0
  7 10  1  0  0  0  0
  7 11  1  0  0  0  0
  7 27  1  0  0  0  0
  8 12  1  0  0  0  0
  8 28  1  0  0  0  0
  8 29  1  0  0  0  0
  9 13  1  0  0  0  0
  9 30  1  0  0  0  0
  9 31  1  0  0  0  0
 10 14  1  0  0  0  0
 10 32  1  0  0  0  0
 10 33  1  0  0  0  0
 11 15  1  0  0  0  0
 11 34  1  0  0  0  0
 11 35  1  0  0  0  0
 12 16  1  0  0  0  0
 12 36  1  0  0  0  0
 12 37  1  0  0  0  0
 13 16  1  0  0  0  0
 13 38  1  0  0  0  0
 13 39  1  0  0  0  0
 14 17  1  0  0  0  0
 14 40  1  0  0  0  0
 14 41  1  0  0  0  0
 15 17  1  0  0  0  0
 15 42  1  0  0  0  0
 15 43  1  0  0  0  0
 16 44  1  0  0  0  0
 16 45  1  0  0  0  0
 17 46  1  0  0  0  0
 17 47  1  0  0  0  0
 18 19  2  0  0  0  0
 18 20  1  0  0  0  0
 19 21  1  0  0  0  0
 20 22  2  0  0  0  0
 20 50  1  0  0  0  0
 21 23  2  0  0  0  0
 21 51  1  0  0  0  0
 22 23  1  0  0  0  0
 22 24  1  0  0  0  0
 23 25  1  0  0  0  0
M  END
> <PUBCHEM_COMPOUND_CID>
10450005

> <PUBCHEM_CONFORMER_RMSD>
0.8

> <PUBCHEM_CONFORMER_DIVERSEORDER>
1
20
30
21
29
9
10
2
28
5
27
32
26
14
4
25
18
34
22
6
3
23
17
33
16
19
13
7
12
11
24
31
15
8

> <PUBCHEM_MMFF94_PARTIAL_CHARGES>
20
1 -0.57
18 0.1
19 0.1
2 -0.57
20 -0.15
21 -0.15
22 0.09
23 0.09
24 0.54
25 0.54
3 -0.87
4 -0.87
48 0.4
49 0.4
5 -0.49
50 0.15
51 0.15
52 0.37
6 0.37
7 0.37

> <PUBCHEM_EFFECTIVE_ROTOR_COUNT>
6.6

> <PUBCHEM_PHARMACOPHORE_FEATURES>
11
1 1 acceptor
1 2 acceptor
1 3 cation
1 3 donor
1 4 cation
1 4 donor
1 5 donor
5 5 22 23 24 25 rings
6 18 19 20 21 22 23 rings
6 6 8 9 12 13 16 rings
6 7 10 11 14 15 17 rings

> <PUBCHEM_HEAVY_ATOM_COUNT>
25

> <PUBCHEM_ATOM_DEF_STEREO_COUNT>
0

> <PUBCHEM_ATOM_UDEF_STEREO_COUNT>
0

> <PUBCHEM_BOND_DEF_STEREO_COUNT>
0

> <PUBCHEM_BOND_UDEF_STEREO_COUNT>
0

> <PUBCHEM_ISOTOPIC_ATOM_COUNT>
0

> <PUBCHEM_COMPONENT_COUNT>
1

> <PUBCHEM_CACTVS_TAUTO_COUNT>
7

> <PUBCHEM_CONFORMER_ID>
009F745500000001

> <PUBCHEM_MMFF94_ENERGY>
68.2021

> <PUBCHEM_FEATURE_SELFOVERLAP>
55.918

> <PUBCHEM_SHAPE_FINGERPRINT>
10074138 170 18192122976738649034
1100329 8 17759512284033069546
114674 6 17182241127656744745
11578080 2 17345169285415683890
12160290 23 18338818748484991069
12166972 35 17554890245695424927
12553582 1 18049725419109911190
12788726 201 18263633121244367802
13004483 165 18339636866477236435
13052359 8 18337387123957614797
13134695 92 17834673073424871407
13140716 1 18266743665102876123
13540713 4 18201719544955351534
13540713 5 18259983774186253948
138480 1 16537638060200578845
13965767 371 17768013888232124211
14178342 30 18336809954285309602
14866123 147 18119804720920144970
14955137 171 17544492202679933526
15927050 60 18050284765443878934
16728300 4 16379716369261270354
17138139 8 17839699809254889973
17980427 23 17271183225898877771
1813 80 17910131418278099254
19427546 62 18266179418318108789
19591789 44 17474386873041364870
20028762 73 17912349936463814063
20739085 24 17544477913049550216
21033648 29 18047174268951102452
21041028 32 18192435396612043191
21049683 271 17395577650184614053
21133410 62 18116693173008720415
21641784 216 17971484133107224612
2255824 54 17476638672585693437
23558518 356 18335699429907998158
23559900 14 17256235468272312843
23845131 108 18267304218866064305
283562 15 18193271030393077032
3091708 16 9274868218013551501
3178227 256 17761224219357555472
3383291 50 17328303542104770674
352729 6 18270396088401610934
3886686 26 17904441214409114298
5104073 3 18337655466158653194
59025328 239 17412152710769908663
6004065 56 17691108757833853359
7164475 11 18409727409044110414
79837 15 18196088850365254009
81228 2 18333726948759836662
86090 222 16529255512964547953
9777508 108 18411415081561323176
9981440 41 16910257448739264768

> <PUBCHEM_SHAPE_MULTIPOLES>
487.81
7.7
6.74
1.19
7.64
0.32
0.19
-0.3
0.93
-9.67
0.88
-1.2
0.01
0

> <PUBCHEM_SHAPE_SELFOVERLAP>
1047.066

> <PUBCHEM_SHAPE_VOLUME>
268.4

> <PUBCHEM_COORDINATE_TYPE>
2
5
10

$$$$
