44410717
  -OEChem-10052120443D

 54 57  0     1  0  0  0  0  0999 V2000
   -5.8837   -3.0406    1.1287 Cl  0  0  0  0  0  0  0  0  0  0  0  0
   -3.4342   -1.5481    1.8385 F   0  0  0  0  0  0  0  0  0  0  0  0
    1.3035   -2.5035    1.4025 O   0  0  0  0  0  0  0  0  0  0  0  0
    3.8228    2.6489    0.2057 O   0  0  0  0  0  0  0  0  0  0  0  0
    2.8381   -1.1170   -0.3558 N   0  0  2  0  0  0  0  0  0  0  0  0
    3.1514   -3.5943    2.2328 N   0  0  0  0  0  0  0  0  0  0  0  0
   -0.6500    4.2074   -0.2628 N   0  0  0  0  0  0  0  0  0  0  0  0
   -2.1615    0.4024    0.3424 N   0  0  0  0  0  0  0  0  0  0  0  0
   -2.5133    2.6907   -0.0762 N   0  0  0  0  0  0  0  0  0  0  0  0
    3.3320   -2.4148    0.1405 C   0  0  2  0  0  0  0  0  0  0  0  0
    3.2223   -3.5159   -0.9230 C   0  0  0  0  0  0  0  0  0  0  0  0
    3.5469   -0.7171   -1.5849 C   0  0  0  0  0  0  0  0  0  0  0  0
    3.9224   -3.1207   -2.2157 C   0  0  0  0  0  0  0  0  0  0  0  0
    3.4166   -1.7654   -2.6886 C   0  0  0  0  0  0  0  0  0  0  0  0
    2.9851   -0.0536    0.6460 C   0  0  0  0  0  0  0  0  0  0  0  0
    2.4825   -2.8343    1.3026 C   0  0  0  0  0  0  0  0  0  0  0  0
    2.0253    1.0810    0.4043 C   0  0  0  0  0  0  0  0  0  0  0  0
    2.4877    2.3756    0.1961 C   0  0  0  0  0  0  0  0  0  0  0  0
    0.6568    0.8302    0.3891 C   0  0  0  0  0  0  0  0  0  0  0  0
   -0.2482    1.8821    0.1645 C   0  0  0  0  0  0  0  0  0  0  0  0
    1.5813    3.4164   -0.0267 C   0  0  0  0  0  0  0  0  0  0  0  0
    0.2067    3.1939   -0.0470 C   0  0  0  0  0  0  0  0  0  0  0  0
   -1.6279    1.6990    0.1369 C   0  0  0  0  0  0  0  0  0  0  0  0
    4.4028    2.9991    1.4607 C   0  0  0  0  0  0  0  0  0  0  0  0
   -1.9633    3.9009   -0.2658 C   0  0  0  0  0  0  0  0  0  0  0  0
   -3.3261   -0.2273   -0.1242 C   0  0  0  0  0  0  0  0  0  0  0  0
   -3.9499   -1.2078    0.6474 C   0  0  0  0  0  0  0  0  0  0  0  0
   -3.8599    0.1301   -1.3625 C   0  0  0  0  0  0  0  0  0  0  0  0
   -5.1075   -1.8308    0.1808 C   0  0  0  0  0  0  0  0  0  0  0  0
   -5.0173   -0.4931   -1.8291 C   0  0  0  0  0  0  0  0  0  0  0  0
   -5.6412   -1.4734   -1.0574 C   0  0  0  0  0  0  0  0  0  0  0  0
    4.3794   -2.3180    0.4578 H   0  0  0  0  0  0  0  0  0  0  0  0
    2.1667   -3.7333   -1.1373 H   0  0  0  0  0  0  0  0  0  0  0  0
    3.6566   -4.4503   -0.5465 H   0  0  0  0  0  0  0  0  0  0  0  0
    4.6122   -0.5428   -1.3814 H   0  0  0  0  0  0  0  0  0  0  0  0
    3.1347    0.2213   -1.9746 H   0  0  0  0  0  0  0  0  0  0  0  0
    3.7460   -3.8787   -2.9866 H   0  0  0  0  0  0  0  0  0  0  0  0
    5.0055   -3.0741   -2.0493 H   0  0  0  0  0  0  0  0  0  0  0  0
    3.9839   -1.4469   -3.5706 H   0  0  0  0  0  0  0  0  0  0  0  0
    2.3665   -1.8496   -2.9959 H   0  0  0  0  0  0  0  0  0  0  0  0
    4.0295    0.2766    0.6978 H   0  0  0  0  0  0  0  0  0  0  0  0
    2.7633   -0.4021    1.6626 H   0  0  0  0  0  0  0  0  0  0  0  0
    0.3080   -0.1855    0.5492 H   0  0  0  0  0  0  0  0  0  0  0  0
    4.1265   -3.8545    2.1249 H   0  0  0  0  0  0  0  0  0  0  0  0
    2.6807   -3.9312    3.0661 H   0  0  0  0  0  0  0  0  0  0  0  0
    1.9617    4.4238   -0.1887 H   0  0  0  0  0  0  0  0  0  0  0  0
   -1.7336   -0.0820    1.1269 H   0  0  0  0  0  0  0  0  0  0  0  0
    4.1963    2.2372    2.2190 H   0  0  0  0  0  0  0  0  0  0  0  0
    4.0218    3.9695    1.7942 H   0  0  0  0  0  0  0  0  0  0  0  0
    5.4855    3.0757    1.3279 H   0  0  0  0  0  0  0  0  0  0  0  0
   -2.6483    4.7217   -0.4403 H   0  0  0  0  0  0  0  0  0  0  0  0
   -3.3854    0.8804   -1.9891 H   0  0  0  0  0  0  0  0  0  0  0  0
   -5.4311   -0.2173   -2.7947 H   0  0  0  0  0  0  0  0  0  0  0  0
   -6.5423   -1.9506   -1.4343 H   0  0  0  0  0  0  0  0  0  0  0  0
  1 29  1  0  0  0  0
  2 27  1  0  0  0  0
  3 16  2  0  0  0  0
  4 18  1  0  0  0  0
  4 24  1  0  0  0  0
  5 10  1  0  0  0  0
  5 12  1  0  0  0  0
  5 15  1  0  0  0  0
  6 16  1  0  0  0  0
  6 44  1  0  0  0  0
  6 45  1  0  0  0  0
  7 22  1  0  0  0  0
  7 25  2  0  0  0  0
  8 23  1  0  0  0  0
  8 26  1  0  0  0  0
  8 47  1  0  0  0  0
  9 23  2  0  0  0  0
  9 25  1  0  0  0  0
 10 11  1  0  0  0  0
 10 16  1  0  0  0  0
 10 32  1  0  0  0  0
 11 13  1  0  0  0  0
 11 33  1  0  0  0  0
 11 34  1  0  0  0  0
 12 14  1  0  0  0  0
 12 35  1  0  0  0  0
 12 36  1  0  0  0  0
 13 14  1  0  0  0  0
 13 37  1  0  0  0  0
 13 38  1  0  0  0  0
 14 39  1  0  0  0  0
 14 40  1  0  0  0  0
 15 17  1  0  0  0  0
 15 41  1  0  0  0  0
 15 42  1  0  0  0  0
 17 18  1  0  0  0  0
 17 19  2  0  0  0  0
 18 21  2  0  0  0  0
 19 20  1  0  0  0  0
 19 43  1  0  0  0  0
 20 22  2  0  0  0  0
 20 23  1  0  0  0  0
 21 22  1  0  0  0  0
 21 46  1  0  0  0  0
 24 48  1  0  0  0  0
 24 49  1  0  0  0  0
 24 50  1  0  0  0  0
 25 51  1  0  0  0  0
 26 27  2  0  0  0  0
 26 28  1  0  0  0  0
 27 29  1  0  0  0  0
 28 30  2  0  0  0  0
 28 52  1  0  0  0  0
 29 31  2  0  0  0  0
 30 31  1  0  0  0  0
 30 53  1  0  0  0  0
 31 54  1  0  0  0  0
M  END
> <PUBCHEM_COMPOUND_CID>
44410717

> <PUBCHEM_CONFORMER_RMSD>
1.2

> <PUBCHEM_CONFORMER_DIVERSEORDER>
1
102
72
98
24
84
64
78
9
28
97
85
86
34
42
82
76
51
27
94
91
50
17
47
87
74
99
25
18
48
14
104
90
81
93
6
23
83
89
54
66
45
65
100
33
32
58
69
3
68
80
30
62
44
40
41
75
8
55
16
53
71
103
21
92
77
49
2
29
39
56
79
73
35
37
61
52
7
22
26
59
95
20
19
96
10
4
15
57
12
31
5
43
36
88
63
46
67
101
60
70
38
13
11

> <PUBCHEM_MMFF94_PARTIAL_CHARGES>
36
1 -0.18
10 0.33
12 0.27
15 0.41
16 0.57
17 -0.14
18 0.08
19 -0.15
2 -0.19
21 -0.15
22 0.31
23 0.41
24 0.28
25 0.47
26 0.1
27 0.19
28 -0.15
29 0.18
3 -0.57
30 -0.15
31 -0.15
4 -0.36
43 0.15
44 0.37
45 0.37
46 0.15
47 0.4
5 -0.81
51 0.15
52 0.15
53 0.15
54 0.15
6 -0.8
7 -0.62
8 -0.6
9 -0.62

> <PUBCHEM_EFFECTIVE_ROTOR_COUNT>
7.2

> <PUBCHEM_PHARMACOPHORE_FEATURES>
11
1 3 acceptor
1 4 acceptor
1 5 cation
1 6 donor
1 8 donor
3 7 9 25 cation
3 8 9 23 cation
6 17 18 19 20 21 22 rings
6 26 27 28 29 30 31 rings
6 5 10 11 12 13 14 rings
6 7 9 20 22 23 25 rings

> <PUBCHEM_HEAVY_ATOM_COUNT>
31

> <PUBCHEM_ATOM_DEF_STEREO_COUNT>
1

> <PUBCHEM_ATOM_UDEF_STEREO_COUNT>
0

> <PUBCHEM_BOND_DEF_STEREO_COUNT>
0

> <PUBCHEM_BOND_UDEF_STEREO_COUNT>
0

> <PUBCHEM_ISOTOPIC_ATOM_COUNT>
0

> <PUBCHEM_COMPONENT_COUNT>
1

> <PUBCHEM_CACTVS_TAUTO_COUNT>
6

> <PUBCHEM_CONFORMER_ID>
02A5A75D00000001

> <PUBCHEM_MMFF94_ENERGY>
102.1766

> <PUBCHEM_FEATURE_SELFOVERLAP>
55.994

> <PUBCHEM_SHAPE_FINGERPRINT>
10169797 241 18410581699367110402
102385 1 18340767018845417768
10928967 22 18265064552282392219
114674 6 18263930002015353754
11991303 11 17396142799779281524
12107183 9 18269573688971297113
12147406 95 18343297046301778845
12553582 1 18193282888180375731
12788726 201 17975139742933529763
13690498 29 18194701271022878526
13911987 19 17899705840281092413
14068700 686 18339916121188528608
14863182 85 18195814183334291828
15003188 105 18333726923027664250
15274700 34 12678878127747132889
15484559 13 18050287269330302044
17909252 39 18341621408103762314
19301679 30 18412267272636208681
1979834 28 18127410265981484056
20028762 73 17765716110883308967
20775438 99 17686852269307932909
20775530 9 18342178825917916289
21197605 99 17617948375292712699
21703447 108 18340475708150135656
22440779 20 15048096810844256462
23559900 14 18055906607077276836
25222932 49 18192985139805338719
255183 313 17697284629512396168
3737641 26 18343311387313974589
4394409 98 16961803335142846701
44062 13 18054234219662712807
444735 86 18412262831086007030
4756261 7 18118090712000512570
5309563 4 18410296947377415995
59755656 215 18336539525521749052
613672 6 18340192034450986303
70251023 43 18270973361849781875
86090 222 18193288613466707330
9831232 110 17970629813232064999

> <PUBCHEM_SHAPE_MULTIPOLES>
595.92
11.63
6.04
1.83
14.23
2.11
0.46
-9.72
1.14
-4.49
-0.59
-1.1
-2.08
2.42

> <PUBCHEM_SHAPE_SELFOVERLAP>
1286.071

> <PUBCHEM_SHAPE_VOLUME>
327.7

> <PUBCHEM_COORDINATE_TYPE>
2
5
10

$$$$
