49830783
  -OEChem-10062121523D

 46 49  0     0  0  0  0  0  0999 V2000
    0.9435    2.6990    1.0320 F   0  0  0  0  0  0  0  0  0  0  0  0
   -9.0792   -0.2537    0.2216 F   0  0  0  0  0  0  0  0  0  0  0  0
   -7.9740    0.6239    1.8757 F   0  0  0  0  0  0  0  0  0  0  0  0
   -8.1391    1.6940   -0.0035 F   0  0  0  0  0  0  0  0  0  0  0  0
   -1.5742   -1.2002   -0.9729 O   0  0  0  0  0  0  0  0  0  0  0  0
    7.4573   -1.0656    1.1891 N   0  0  0  0  0  0  0  0  0  0  0  0
    6.5172   -1.4272    2.0780 N   0  0  0  0  0  0  0  0  0  0  0  0
   -0.7689    0.7408    0.0631 N   0  0  0  0  0  0  0  0  0  0  0  0
    4.1550   -1.0968    2.0947 N   0  0  0  0  0  0  0  0  0  0  0  0
   -3.0406    0.3248    0.0235 N   0  0  0  0  0  0  0  0  0  0  0  0
    5.5994   -0.3051    0.3072 C   0  0  0  0  0  0  0  0  0  0  0  0
    4.8000    0.3440   -0.6484 C   0  0  0  0  0  0  0  0  0  0  0  0
    6.9721   -0.3886    0.1030 C   0  0  0  0  0  0  0  0  0  0  0  0
    3.3721    0.4459   -0.4649 C   0  0  0  0  0  0  0  0  0  0  0  0
    5.3881   -0.9626    1.5382 C   0  0  0  0  0  0  0  0  0  0  0  0
    5.4192    0.8879   -1.7807 C   0  0  0  0  0  0  0  0  0  0  0  0
    7.6093    0.1467   -1.0185 C   0  0  0  0  0  0  0  0  0  0  0  0
    2.8317    1.5421    0.2074 C   0  0  0  0  0  0  0  0  0  0  0  0
    2.5324   -0.5513   -0.9609 C   0  0  0  0  0  0  0  0  0  0  0  0
    6.8001    0.7898   -1.9607 C   0  0  0  0  0  0  0  0  0  0  0  0
    0.6118    0.6439   -0.1122 C   0  0  0  0  0  0  0  0  0  0  0  0
    1.4516    1.6411    0.3837 C   0  0  0  0  0  0  0  0  0  0  0  0
    1.1523   -0.4524   -0.7844 C   0  0  0  0  0  0  0  0  0  0  0  0
   -4.3053   -0.2675   -0.2041 C   0  0  0  0  0  0  0  0  0  0  0  0
   -1.7790   -0.1570   -0.3607 C   0  0  0  0  0  0  0  0  0  0  0  0
   -6.7095   -0.2234    0.0303 C   0  0  0  0  0  0  0  0  0  0  0  0
   -5.4630    0.3611    0.2547 C   0  0  0  0  0  0  0  0  0  0  0  0
   -4.3941   -1.4803   -0.8874 C   0  0  0  0  0  0  0  0  0  0  0  0
   -6.7983   -1.4363   -0.6528 C   0  0  0  0  0  0  0  0  0  0  0  0
   -5.6405   -2.0647   -1.1118 C   0  0  0  0  0  0  0  0  0  0  0  0
   -7.9474    0.4477    0.5215 C   0  0  0  0  0  0  0  0  0  0  0  0
    4.8281    1.3969   -2.5395 H   0  0  0  0  0  0  0  0  0  0  0  0
    8.6819    0.0696   -1.1566 H   0  0  0  0  0  0  0  0  0  0  0  0
    3.4719    2.3280    0.6009 H   0  0  0  0  0  0  0  0  0  0  0  0
    2.9387   -1.4123   -1.4868 H   0  0  0  0  0  0  0  0  0  0  0  0
    7.2557    1.2206   -2.8489 H   0  0  0  0  0  0  0  0  0  0  0  0
    8.4194   -1.3131    1.3840 H   0  0  0  0  0  0  0  0  0  0  0  0
    0.5718   -1.2649   -1.1971 H   0  0  0  0  0  0  0  0  0  0  0  0
   -1.0865    1.5681    0.5624 H   0  0  0  0  0  0  0  0  0  0  0  0
    3.2956   -0.7472    1.6902 H   0  0  0  0  0  0  0  0  0  0  0  0
    4.0317   -1.5754    2.9819 H   0  0  0  0  0  0  0  0  0  0  0  0
   -5.3977    1.3069    0.7880 H   0  0  0  0  0  0  0  0  0  0  0  0
   -3.0577    1.2076    0.5280 H   0  0  0  0  0  0  0  0  0  0  0  0
   -3.5469   -2.0286   -1.2735 H   0  0  0  0  0  0  0  0  0  0  0  0
   -7.7592   -1.9083   -0.8378 H   0  0  0  0  0  0  0  0  0  0  0  0
   -5.7110   -3.0092   -1.6437 H   0  0  0  0  0  0  0  0  0  0  0  0
  1 22  1  0  0  0  0
  2 31  1  0  0  0  0
  3 31  1  0  0  0  0
  4 31  1  0  0  0  0
  5 25  2  0  0  0  0
  6  7  1  0  0  0  0
  6 13  1  0  0  0  0
  6 37  1  0  0  0  0
  7 15  2  0  0  0  0
  8 21  1  0  0  0  0
  8 25  1  0  0  0  0
  8 39  1  0  0  0  0
  9 15  1  0  0  0  0
  9 40  1  0  0  0  0
  9 41  1  0  0  0  0
 10 24  1  0  0  0  0
 10 25  1  0  0  0  0
 10 43  1  0  0  0  0
 11 12  2  0  0  0  0
 11 13  1  0  0  0  0
 11 15  1  0  0  0  0
 12 14  1  0  0  0  0
 12 16  1  0  0  0  0
 13 17  2  0  0  0  0
 14 18  2  0  0  0  0
 14 19  1  0  0  0  0
 16 20  2  0  0  0  0
 16 32  1  0  0  0  0
 17 20  1  0  0  0  0
 17 33  1  0  0  0  0
 18 22  1  0  0  0  0
 18 34  1  0  0  0  0
 19 23  2  0  0  0  0
 19 35  1  0  0  0  0
 20 36  1  0  0  0  0
 21 22  2  0  0  0  0
 21 23  1  0  0  0  0
 23 38  1  0  0  0  0
 24 27  1  0  0  0  0
 24 28  2  0  0  0  0
 26 27  2  0  0  0  0
 26 29  1  0  0  0  0
 26 31  1  0  0  0  0
 27 42  1  0  0  0  0
 28 30  1  0  0  0  0
 28 44  1  0  0  0  0
 29 30  2  0  0  0  0
 29 45  1  0  0  0  0
 30 46  1  0  0  0  0
M  END
> <PUBCHEM_COMPOUND_CID>
49830783

> <PUBCHEM_CONFORMER_RMSD>
0.8

> <PUBCHEM_CONFORMER_DIVERSEORDER>
1
27
46
30
76
73
35
52
40
57
25
50
20
66
26
75
48
29
18
32
3
34
60
15
28
16
62
31
6
70
33
72
44
10
36
8
64
42
39
74
38
7
58
22
37
9
41
21
67
43
53
54
56
4
61
17
63
59
51
19
69
55
12
11
71
65
68
49
2
5
24
45
14
47
23
13

> <PUBCHEM_MMFF94_PARTIAL_CHARGES>
43
1 -0.19
10 -0.55
13 -0.15
15 0.37
16 -0.15
17 -0.15
18 -0.15
19 -0.15
2 -0.34
20 -0.15
21 0.12
22 0.19
23 -0.15
24 0.12
25 0.69
26 -0.14
27 -0.15
28 -0.15
29 -0.15
3 -0.34
30 -0.15
31 1.16
32 0.15
33 0.15
34 0.15
35 0.15
36 0.15
37 0.27
38 0.15
39 0.37
4 -0.34
40 0.4
41 0.4
42 0.15
43 0.37
44 0.15
45 0.15
46 0.15
5 -0.57
6 0.3
7 -0.71
8 -0.55
9 -0.88

> <PUBCHEM_EFFECTIVE_ROTOR_COUNT>
6

> <PUBCHEM_PHARMACOPHORE_FEATURES>
10
1 10 donor
1 5 acceptor
1 6 donor
1 8 donor
1 9 donor
3 7 9 15 cation
5 6 7 11 13 15 rings
6 11 12 13 16 17 20 rings
6 14 18 19 21 22 23 rings
6 24 26 27 28 29 30 rings

> <PUBCHEM_HEAVY_ATOM_COUNT>
31

> <PUBCHEM_ATOM_DEF_STEREO_COUNT>
0

> <PUBCHEM_ATOM_UDEF_STEREO_COUNT>
0

> <PUBCHEM_BOND_DEF_STEREO_COUNT>
0

> <PUBCHEM_BOND_UDEF_STEREO_COUNT>
0

> <PUBCHEM_ISOTOPIC_ATOM_COUNT>
0

> <PUBCHEM_COMPONENT_COUNT>
1

> <PUBCHEM_CACTVS_TAUTO_COUNT>
122

> <PUBCHEM_CONFORMER_ID>
02F85B7F00000001

> <PUBCHEM_MMFF94_ENERGY>
84.1185

> <PUBCHEM_FEATURE_SELFOVERLAP>
50.887

> <PUBCHEM_SHAPE_FINGERPRINT>
10 15 16917061187962895906
10299344 5 18186521012086880007
10319688 140 15358520966098437776
10951579 204 17272881760483769497
11135926 11 18342449323496795983
11181472 205 18115312172090237309
11315181 36 11384113056109897351
11719270 70 17775288265804276078
12082328 90 16877941625462270261
13533116 47 17821723932475519586
14040222 383 18342177817192211851
14251764 18 18334295370738943967
14251764 46 17275108327437333132
14294032 229 18199764543781948361
15119646 104 18260544494150198826
15183329 4 18413110571651756733
15301273 46 17060340716883559292
15328684 2 18265893562453249129
15352257 5 16877664573922365635
15419008 47 16702300135365625177
15419008 91 17131539583766623761
15461852 350 14836399247161385637
15510794 2 16487256581779313486
1577012 14 18335983146488437455
15849732 13 16415763033090912613
19301679 30 18267863879222429922
20105231 36 14345797128535030905
20157964 124 16877663483474970910
21150785 3 9871746901819872739
21344244 181 15719391703357654792
21792934 111 16200434667475354561
22224240 67 15195284226705844053
22956985 138 17980763732590276918
23516275 137 18042421148413061874
23522609 53 18189922887957680900
24893992 56 18271524291292249395
249057 3 18060421339776388701
3004659 81 18343305907099248372
335352 9 18202567302305468877
3383291 50 17703506705262711567
3411729 13 17843671408811755664
34797466 226 15574715815833016420
397638 26 17060339656380715175
397830 11 15697424671825356310
4073 2 18266180707113875791
4098825 35 17168135698488412869
4149490 64 16660641869799956232
439807 62 17967812738715889856
44389302 135 18340759348830406018
4516262 110 12894776096410501482
5104073 3 18129097999756568379
5219985 9 18408322193965410060
57527293 21 17058621107601709946

> <PUBCHEM_SHAPE_MULTIPOLES>
578.1
28.56
1.63
1.55
32.91
0.2
-0.27
-3.29
-2.41
0.19
-0.28
-2.2
-0.3
-3.4

> <PUBCHEM_SHAPE_SELFOVERLAP>
1290.607

> <PUBCHEM_SHAPE_VOLUME>
308.2

> <PUBCHEM_COORDINATE_TYPE>
2
5
10

$$$$
