49830296
  -OEChem-10062121523D

 49 51  0     0  0  0  0  0  0999 V2000
   -0.5836   -4.5640   -2.0342 Cl  0  0  0  0  0  0  0  0  0  0  0  0
    4.1668    1.4494   -1.6851 S   0  0  0  0  0  0  0  0  0  0  0  0
    3.9544    2.7537   -2.2815 O   0  0  0  0  0  0  0  0  0  0  0  0
    3.5029    0.2741   -2.2157 O   0  0  0  0  0  0  0  0  0  0  0  0
    3.8686    1.5205   -0.0094 N   0  0  0  0  0  0  0  0  0  0  0  0
    1.7640   -1.2419    0.7748 N   0  0  0  0  0  0  0  0  0  0  0  0
    0.5661   -2.7773   -0.5491 N   0  0  0  0  0  0  0  0  0  0  0  0
   -5.0393   -0.1694    0.9086 N   0  0  0  0  0  0  0  0  0  0  0  0
   -5.2843    2.1419    0.2752 N   0  0  0  0  0  0  0  0  0  0  0  0
    3.3530    0.1799    2.0488 C   0  0  0  0  0  0  0  0  0  0  0  0
    4.3020    0.3904    0.8452 C   0  0  0  0  0  0  0  0  0  0  0  0
    1.8885   -0.0713    1.6128 C   0  0  0  0  0  0  0  0  0  0  0  0
    3.3783    1.4182    2.9692 C   0  0  0  0  0  0  0  0  0  0  0  0
    3.8733   -1.0222    2.8657 C   0  0  0  0  0  0  0  0  0  0  0  0
    0.5677   -1.6655    0.2201 C   0  0  0  0  0  0  0  0  0  0  0  0
   -0.5616   -0.9114    0.4958 C   0  0  0  0  0  0  0  0  0  0  0  0
   -1.7703   -1.3249   -0.0534 C   0  0  0  0  0  0  0  0  0  0  0  0
    5.9145    1.1216   -1.6945 C   0  0  0  0  0  0  0  0  0  0  0  0
   -2.9702   -0.5784    0.2000 C   0  0  0  0  0  0  0  0  0  0  0  0
   -3.2847    0.7733   -0.1013 C   0  0  0  0  0  0  0  0  0  0  0  0
   -1.8122   -2.4638   -0.8501 C   0  0  0  0  0  0  0  0  0  0  0  0
   -4.5811    0.9963    0.3534 C   0  0  0  0  0  0  0  0  0  0  0  0
   -4.0683   -1.1330    0.8212 C   0  0  0  0  0  0  0  0  0  0  0  0
   -0.6269   -3.1485   -1.0655 C   0  0  0  0  0  0  0  0  0  0  0  0
   -2.6198    1.8493   -0.7115 C   0  0  0  0  0  0  0  0  0  0  0  0
   -3.3023    3.0597   -0.8185 C   0  0  0  0  0  0  0  0  0  0  0  0
   -4.5958    3.1431   -0.3211 C   0  0  0  0  0  0  0  0  0  0  0  0
    5.3172    0.6053    1.2007 H   0  0  0  0  0  0  0  0  0  0  0  0
    4.3535   -0.5275    0.2499 H   0  0  0  0  0  0  0  0  0  0  0  0
    1.2722   -0.1965    2.5130 H   0  0  0  0  0  0  0  0  0  0  0  0
    1.5226    0.8152    1.0795 H   0  0  0  0  0  0  0  0  0  0  0  0
    4.4013    1.6620    3.2775 H   0  0  0  0  0  0  0  0  0  0  0  0
    2.7910    1.2452    3.8785 H   0  0  0  0  0  0  0  0  0  0  0  0
    2.9584    2.3004    2.4743 H   0  0  0  0  0  0  0  0  0  0  0  0
    4.8722   -0.8183    3.2690 H   0  0  0  0  0  0  0  0  0  0  0  0
    3.2135   -1.2393    3.7134 H   0  0  0  0  0  0  0  0  0  0  0  0
    3.9496   -1.9315    2.2607 H   0  0  0  0  0  0  0  0  0  0  0  0
    3.9954    2.4395    0.4342 H   0  0  0  0  0  0  0  0  0  0  0  0
    2.5787   -1.8043    0.5609 H   0  0  0  0  0  0  0  0  0  0  0  0
   -0.5489   -0.0249    1.1206 H   0  0  0  0  0  0  0  0  0  0  0  0
    6.1123    0.1405   -1.2614 H   0  0  0  0  0  0  0  0  0  0  0  0
    6.4265    1.9107   -1.1405 H   0  0  0  0  0  0  0  0  0  0  0  0
    6.2483    1.1310   -2.7350 H   0  0  0  0  0  0  0  0  0  0  0  0
   -2.7405   -2.8087   -1.2965 H   0  0  0  0  0  0  0  0  0  0  0  0
   -4.2527   -2.1248    1.2119 H   0  0  0  0  0  0  0  0  0  0  0  0
   -5.9533   -0.2980    1.3200 H   0  0  0  0  0  0  0  0  0  0  0  0
   -1.6080    1.7521   -1.0915 H   0  0  0  0  0  0  0  0  0  0  0  0
   -2.8307    3.9196   -1.2821 H   0  0  0  0  0  0  0  0  0  0  0  0
   -5.1428    4.0793   -0.3963 H   0  0  0  0  0  0  0  0  0  0  0  0
  1 24  1  0  0  0  0
  2  3  2  0  0  0  0
  2  4  2  0  0  0  0
  2  5  1  0  0  0  0
  2 18  1  0  0  0  0
  5 11  1  0  0  0  0
  5 38  1  0  0  0  0
  6 12  1  0  0  0  0
  6 15  1  0  0  0  0
  6 39  1  0  0  0  0
  7 15  2  0  0  0  0
  7 24  1  0  0  0  0
  8 22  1  0  0  0  0
  8 23  1  0  0  0  0
  8 46  1  0  0  0  0
  9 22  1  0  0  0  0
  9 27  2  0  0  0  0
 10 11  1  0  0  0  0
 10 12  1  0  0  0  0
 10 13  1  0  0  0  0
 10 14  1  0  0  0  0
 11 28  1  0  0  0  0
 11 29  1  0  0  0  0
 12 30  1  0  0  0  0
 12 31  1  0  0  0  0
 13 32  1  0  0  0  0
 13 33  1  0  0  0  0
 13 34  1  0  0  0  0
 14 35  1  0  0  0  0
 14 36  1  0  0  0  0
 14 37  1  0  0  0  0
 15 16  1  0  0  0  0
 16 17  2  0  0  0  0
 16 40  1  0  0  0  0
 17 19  1  0  0  0  0
 17 21  1  0  0  0  0
 18 41  1  0  0  0  0
 18 42  1  0  0  0  0
 18 43  1  0  0  0  0
 19 20  1  0  0  0  0
 19 23  2  0  0  0  0
 20 22  2  0  0  0  0
 20 25  1  0  0  0  0
 21 24  2  0  0  0  0
 21 44  1  0  0  0  0
 23 45  1  0  0  0  0
 25 26  2  0  0  0  0
 25 47  1  0  0  0  0
 26 27  1  0  0  0  0
 26 48  1  0  0  0  0
 27 49  1  0  0  0  0
M  END
> <PUBCHEM_COMPOUND_CID>
49830296

> <PUBCHEM_CONFORMER_RMSD>
1

> <PUBCHEM_CONFORMER_DIVERSEORDER>
2
189
73
48
159
179
71
68
126
184
136
105
143
92
54
35
169
142
130
149
139
155
72
62
166
183
31
176
64
115
27
19
11
112
119
150
191
79
193
97
89
134
161
47
185
125
18
177
99
96
46
67
108
118
15
58
145
128
124
195
109
146
152
90
56
157
76
55
52
141
5
38
164
160
178
59
188
196
190
41
147
175
94
110
25
51
186
42
168
63
85
78
137
131
117
30
40
10
83
154
162
12
95
45
132
7
181
77
104
116
26
114
69
16
50
165
170
167
180
14
34
86
36
101
93
158
129
197
111
122
140
49
127
20
113
151
75
148
28
138
65
44
91
171
81
60
173
102
43
84
21
23
107
4
156
9
88
70
17
120
163
80
144
192
133
39
135
121
87
100
33
74
13
98
82
66
3
187
6
153
57
194
174
182
103
8
106
123
29
24
32
37
22
53
61
1
172

> <PUBCHEM_MMFF94_PARTIAL_CHARGES>
32
1 -0.18
11 0.36
12 0.37
15 0.41
16 -0.15
17 0.05
18 0.11
19 -0.05
2 1.33
21 -0.15
22 0.11
23 -0.3
24 0.49
25 -0.15
26 -0.15
27 0.16
3 -0.65
38 0.42
39 0.4
4 -0.65
40 0.15
44 0.15
45 0.15
46 0.27
47 0.15
48 0.15
49 0.15
5 -0.91
6 -0.87
7 -0.62
8 0.03
9 -0.57

> <PUBCHEM_EFFECTIVE_ROTOR_COUNT>
7

> <PUBCHEM_PHARMACOPHORE_FEATURES>
12
1 3 acceptor
1 4 acceptor
1 5 donor
1 6 donor
1 8 cation
1 8 donor
1 9 acceptor
3 10 13 14 hydrophobe
3 6 7 15 cation
5 8 19 20 22 23 rings
6 7 15 16 17 21 24 rings
6 9 20 22 25 26 27 rings

> <PUBCHEM_HEAVY_ATOM_COUNT>
27

> <PUBCHEM_ATOM_DEF_STEREO_COUNT>
0

> <PUBCHEM_ATOM_UDEF_STEREO_COUNT>
0

> <PUBCHEM_BOND_DEF_STEREO_COUNT>
0

> <PUBCHEM_BOND_UDEF_STEREO_COUNT>
0

> <PUBCHEM_ISOTOPIC_ATOM_COUNT>
0

> <PUBCHEM_COMPONENT_COUNT>
1

> <PUBCHEM_CACTVS_TAUTO_COUNT>
13

> <PUBCHEM_CONFORMER_ID>
02F8599800000002

> <PUBCHEM_MMFF94_ENERGY>
65.3377

> <PUBCHEM_FEATURE_SELFOVERLAP>
61.025

> <PUBCHEM_SHAPE_FINGERPRINT>
10165383 225 18058751168428500531
10615611 76 17894915165149796900
10670039 82 18409452509309103508
10906281 52 18335145268153645811
11135609 149 15911924895343412780
11595378 159 18113897199409017263
12403259 118 18187633674920321353
12422481 6 17823971251773671693
12596602 18 16805323301642108721
12788726 201 17972597968082017963
13617811 41 17910107250576941303
13726171 33 18336564766702429624
14341114 328 17530964687436855905
14347329 18 18411990143560032312
1454969 45 18339366370523468119
14950920 106 16950274105242963049
15021287 119 17822833318038145218
15163728 17 18269005210524449013
15297060 5 18199764565166828120
15403338 16 16950551173941910537
15575132 122 18334298699454994053
15842332 3 18043509811359226370
16988056 13 17404574477088404629
21033648 29 18202277009212442176
21033650 10 18267025149455622226
21223535 225 16629974204719215984
21302155 148 18334012770233537945
21458453 9 12614181900805457908
21756936 100 17896325890682600538
23559900 14 17976546001331769183
312425 83 18124336032319425444
3298306 158 18201717314944223815
3729539 64 17701843019568037222
38570 142 17458923612549861060
508706 21 17988075737446827006
5252454 2 18202007620516405643
59025328 239 14045748093248319952
6523845 18 17916883390583159619
6608658 132 18263919007268217887
7808743 9 18337958990479407604
9862522 239 18267282318864173371

> <PUBCHEM_SHAPE_MULTIPOLES>
524.72
12.11
4.31
2.48
2.11
3.13
-0.6
-10.9
0.36
-3.49
3.12
5.13
-0.4
-1.09

> <PUBCHEM_SHAPE_SELFOVERLAP>
1100.151

> <PUBCHEM_SHAPE_VOLUME>
303.4

> <PUBCHEM_COORDINATE_TYPE>
2
5
10

$$$$
