49830588
  -OEChem-10062121563D

 44 47  0     0  0  0  0  0  0999 V2000
   -4.2457   -3.0943    0.6528 O   0  0  0  0  0  0  0  0  0  0  0  0
    1.7918   -0.7899   -0.1646 O   0  0  0  0  0  0  0  0  0  0  0  0
   -6.6112   -2.1924   -0.4938 O   0  0  0  0  0  0  0  0  0  0  0  0
    1.1483    3.5583    0.3154 N   0  0  0  0  0  0  0  0  0  0  0  0
    2.1710    2.6913    0.2306 N   0  0  0  0  0  0  0  0  0  0  0  0
    3.7545    0.4861   -0.0036 N   0  0  0  0  0  0  0  0  0  0  0  0
    0.1559    1.6181    0.0706 C   0  0  0  0  0  0  0  0  0  0  0  0
   -0.0883    2.9779    0.2268 C   0  0  0  0  0  0  0  0  0  0  0  0
   -2.2269    1.2577   -0.0114 C   0  0  0  0  0  0  0  0  0  0  0  0
   -0.9287    0.7338   -0.0518 C   0  0  0  0  0  0  0  0  0  0  0  0
    1.5634    1.5120    0.0813 C   0  0  0  0  0  0  0  0  0  0  0  0
   -3.3584    0.3631   -0.1357 C   0  0  0  0  0  0  0  0  0  0  0  0
   -1.3743    3.5210    0.2694 C   0  0  0  0  0  0  0  0  0  0  0  0
   -2.4437    2.6279    0.1466 C   0  0  0  0  0  0  0  0  0  0  0  0
   -3.2613   -0.9517    0.3201 C   0  0  0  0  0  0  0  0  0  0  0  0
    2.3549    0.3204   -0.0463 C   0  0  0  0  0  0  0  0  0  0  0  0
   -4.5460    0.8160   -0.7101 C   0  0  0  0  0  0  0  0  0  0  0  0
   -4.3518   -1.8133    0.2016 C   0  0  0  0  0  0  0  0  0  0  0  0
   -5.6364   -0.0457   -0.8289 C   0  0  0  0  0  0  0  0  0  0  0  0
   -5.5394   -1.3604   -0.3729 C   0  0  0  0  0  0  0  0  0  0  0  0
    4.7740   -0.4945   -0.0793 C   0  0  0  0  0  0  0  0  0  0  0  0
    4.4381   -1.8414   -0.2163 C   0  0  0  0  0  0  0  0  0  0  0  0
    6.1142   -0.1129   -0.0168 C   0  0  0  0  0  0  0  0  0  0  0  0
    5.4424   -2.8066   -0.2907 C   0  0  0  0  0  0  0  0  0  0  0  0
    7.1185   -1.0780   -0.0914 C   0  0  0  0  0  0  0  0  0  0  0  0
    6.7826   -2.4249   -0.2285 C   0  0  0  0  0  0  0  0  0  0  0  0
   -2.9975   -3.4777    1.2269 C   0  0  0  0  0  0  0  0  0  0  0  0
   -0.7298   -0.3202   -0.2113 H   0  0  0  0  0  0  0  0  0  0  0  0
   -1.5402    4.5846    0.3997 H   0  0  0  0  0  0  0  0  0  0  0  0
   -3.4427    3.0524    0.2139 H   0  0  0  0  0  0  0  0  0  0  0  0
    1.3632    4.5404    0.4345 H   0  0  0  0  0  0  0  0  0  0  0  0
   -2.3444   -1.2657    0.8034 H   0  0  0  0  0  0  0  0  0  0  0  0
   -4.6588    1.8206   -1.1085 H   0  0  0  0  0  0  0  0  0  0  0  0
   -6.5536    0.3177   -1.2848 H   0  0  0  0  0  0  0  0  0  0  0  0
    4.0928    1.4409    0.0993 H   0  0  0  0  0  0  0  0  0  0  0  0
    3.4251   -2.2137   -0.2716 H   0  0  0  0  0  0  0  0  0  0  0  0
    6.3898    0.9332    0.0899 H   0  0  0  0  0  0  0  0  0  0  0  0
    5.1822   -3.8558   -0.3974 H   0  0  0  0  0  0  0  0  0  0  0  0
    8.1620   -0.7809   -0.0428 H   0  0  0  0  0  0  0  0  0  0  0  0
    7.5646   -3.1764   -0.2866 H   0  0  0  0  0  0  0  0  0  0  0  0
   -7.3428   -1.7075   -0.9131 H   0  0  0  0  0  0  0  0  0  0  0  0
   -2.1813   -3.4218    0.4983 H   0  0  0  0  0  0  0  0  0  0  0  0
   -2.7836   -2.9149    2.1420 H   0  0  0  0  0  0  0  0  0  0  0  0
   -3.0882   -4.5295    1.5181 H   0  0  0  0  0  0  0  0  0  0  0  0
  1 18  1  0  0  0  0
  1 27  1  0  0  0  0
  2 16  2  0  0  0  0
  3 20  1  0  0  0  0
  3 41  1  0  0  0  0
  4  5  1  0  0  0  0
  4  8  1  0  0  0  0
  4 31  1  0  0  0  0
  5 11  2  0  0  0  0
  6 16  1  0  0  0  0
  6 21  1  0  0  0  0
  6 35  1  0  0  0  0
  7  8  2  0  0  0  0
  7 10  1  0  0  0  0
  7 11  1  0  0  0  0
  8 13  1  0  0  0  0
  9 10  2  0  0  0  0
  9 12  1  0  0  0  0
  9 14  1  0  0  0  0
 10 28  1  0  0  0  0
 11 16  1  0  0  0  0
 12 15  2  0  0  0  0
 12 17  1  0  0  0  0
 13 14  2  0  0  0  0
 13 29  1  0  0  0  0
 14 30  1  0  0  0  0
 15 18  1  0  0  0  0
 15 32  1  0  0  0  0
 17 19  2  0  0  0  0
 17 33  1  0  0  0  0
 18 20  2  0  0  0  0
 19 20  1  0  0  0  0
 19 34  1  0  0  0  0
 21 22  2  0  0  0  0
 21 23  1  0  0  0  0
 22 24  1  0  0  0  0
 22 36  1  0  0  0  0
 23 25  2  0  0  0  0
 23 37  1  0  0  0  0
 24 26  2  0  0  0  0
 24 38  1  0  0  0  0
 25 26  1  0  0  0  0
 25 39  1  0  0  0  0
 26 40  1  0  0  0  0
 27 42  1  0  0  0  0
 27 43  1  0  0  0  0
 27 44  1  0  0  0  0
M  END
> <PUBCHEM_COMPOUND_CID>
49830588

> <PUBCHEM_CONFORMER_RMSD>
0.8

> <PUBCHEM_CONFORMER_DIVERSEORDER>
1
10
18
7
15
9
4
6
19
3
11
13
8
2
5
12
17
20
16
14

> <PUBCHEM_MMFF94_PARTIAL_CHARGES>
38
1 -0.36
10 -0.15
11 0.2
13 -0.15
14 -0.15
15 -0.15
16 0.72
17 -0.15
18 0.08
19 -0.15
2 -0.57
20 0.08
21 0.12
22 -0.15
23 -0.15
24 -0.15
25 -0.15
26 -0.15
27 0.28
28 0.15
29 0.15
3 -0.53
30 0.15
31 0.27
32 0.15
33 0.15
34 0.15
35 0.37
36 0.15
37 0.15
38 0.15
39 0.15
4 0.3
40 0.15
41 0.45
5 -0.71
6 -0.55
8 -0.15

> <PUBCHEM_EFFECTIVE_ROTOR_COUNT>
5

> <PUBCHEM_PHARMACOPHORE_FEATURES>
10
1 1 acceptor
1 2 acceptor
1 3 donor
1 4 donor
1 5 acceptor
1 6 donor
5 4 5 7 8 11 rings
6 12 15 17 18 19 20 rings
6 21 22 23 24 25 26 rings
6 7 8 9 10 13 14 rings

> <PUBCHEM_HEAVY_ATOM_COUNT>
27

> <PUBCHEM_ATOM_DEF_STEREO_COUNT>
0

> <PUBCHEM_ATOM_UDEF_STEREO_COUNT>
0

> <PUBCHEM_BOND_DEF_STEREO_COUNT>
0

> <PUBCHEM_BOND_UDEF_STEREO_COUNT>
0

> <PUBCHEM_ISOTOPIC_ATOM_COUNT>
0

> <PUBCHEM_COMPONENT_COUNT>
1

> <PUBCHEM_CACTVS_TAUTO_COUNT>
39

> <PUBCHEM_CONFORMER_ID>
02F85ABC00000001

> <PUBCHEM_MMFF94_ENERGY>
89.16

> <PUBCHEM_FEATURE_SELFOVERLAP>
50.839

> <PUBCHEM_SHAPE_FINGERPRINT>
10050765 1 18412262830992301760
10391435 84 18408877460870464274
10411042 1 18412544318689662821
11197282 1 18410858780349534298
11409948 41 17190092156504006895
11410812 94 16806153360201905020
117089 54 18264777734424582371
11828532 37 18043822089915691627
11963148 33 18122337150081537494
12107183 9 18271538515981477593
12166972 35 18040437698139361396
12202916 173 18342734101103202391
12645989 146 18270116941472222711
12760667 363 18413108347016991837
13248334 5 18051973915904647201
13402501 40 18411699880821998535
13540713 4 18268971185462370665
13540713 5 18340225036537343528
1361 4 18195528096201216286
13631057 29 18411136892846237704
13690498 29 18187079538456277269
14117953 113 18273494564193952247
14211702 104 18270687459373829550
14461889 52 18342165667087759170
14866123 147 18341056199467568345
14931854 50 18113606881670209135
15250474 111 18044650894028195138
15320467 1 17113819588033269122
15351339 4 18041549257177419755
15352361 1 18411419509593217381
15519825 34 14620212214045115909
15803439 3 17102251712249571141
15927050 60 17907576922660876781
17138139 8 17749384893177870178
17492 89 18122625226417811267
19246450 95 18054813701821541761
20567600 70 18409728487007139394
20691028 202 8430313532620187135
21033650 10 16877933902874286493
21130935 74 18126566963140330387
21236236 1 18270118998439192920
21267235 1 18410013252092296497
21307412 95 18408876344337327175
221490 88 18192434284405437073
23379529 103 18336830904413261755
23428019 142 17168148961479682146
23522609 53 18124912059953325616
23559900 14 18337945796598908737
25025965 108 17700106847695394006
255183 313 17981345399578527585
3004659 81 18113614599414638492
32027 91 18339637944951344865
329604 57 18410296900285568476
335352 9 18411133598860133629
3383291 50 18335982047520804475
3421961 26 18269835466104757736
4073 2 18268151964274862082
4280585 95 18335416855145307576
437815 12 18410851075388591559
474144 1 17314769837686608667
5104073 3 18060702783945160432
5718773 13 18341608274326497247
6138700 20 18410853257701820471
636775 8 18270972246245150870
6376802 137 17917713487090760625
6431902 208 18412261714410736766
7970288 3 18411979173960552038
9709674 26 18047187738072868473
999808 66 17967829249361480171

> <PUBCHEM_SHAPE_MULTIPOLES>
523.1
17.23
4.47
0.75
16.28
0.72
0.04
-17.39
-2.81
-2.14
1.02
-0.51
-0.25
0.93

> <PUBCHEM_SHAPE_SELFOVERLAP>
1167.851

> <PUBCHEM_SHAPE_VOLUME>
279.6

> <PUBCHEM_COORDINATE_TYPE>
2
5
10

$$$$
