44138049
  -OEChem-10052115143D

 33 35  0     0  0  0  0  0  0999 V2000
    2.2963    2.7994    1.3562 Cl  0  0  0  0  0  0  0  0  0  0  0  0
   -3.6868    2.5089   -1.9575 Cl  0  0  0  0  0  0  0  0  0  0  0  0
    4.3935    1.0303    0.1361 O   0  0  0  0  0  0  0  0  0  0  0  0
   -0.9139   -2.5332   -0.0168 N   0  0  0  0  0  0  0  0  0  0  0  0
    1.6558   -1.3406   -0.3386 C   0  0  0  0  0  0  0  0  0  0  0  0
    1.3985   -2.7151   -0.8806 C   0  0  0  0  0  0  0  0  0  0  0  0
    0.5748   -0.6022    0.1613 C   0  0  0  0  0  0  0  0  0  0  0  0
    0.2915   -3.3665   -0.0618 C   0  0  0  0  0  0  0  0  0  0  0  0
   -0.7639   -1.2538    0.1061 C   0  0  0  0  0  0  0  0  0  0  0  0
    2.9340   -0.7752   -0.3520 C   0  0  0  0  0  0  0  0  0  0  0  0
    0.7808    0.6734    0.6943 C   0  0  0  0  0  0  0  0  0  0  0  0
   -1.9948   -0.4303    0.1643 C   0  0  0  0  0  0  0  0  0  0  0  0
    3.1359    0.5046    0.1643 C   0  0  0  0  0  0  0  0  0  0  0  0
    2.0634    1.2233    0.6922 C   0  0  0  0  0  0  0  0  0  0  0  0
   -2.2334    0.5380   -0.8109 C   0  0  0  0  0  0  0  0  0  0  0  0
   -2.9143   -0.6232    1.1953 C   0  0  0  0  0  0  0  0  0  0  0  0
   -3.3914    1.3136   -0.7550 C   0  0  0  0  0  0  0  0  0  0  0  0
   -4.0723    0.1526    1.2514 C   0  0  0  0  0  0  0  0  0  0  0  0
   -4.3109    1.1209    0.2761 C   0  0  0  0  0  0  0  0  0  0  0  0
    4.7573    1.7749   -1.0243 C   0  0  0  0  0  0  0  0  0  0  0  0
    1.1035   -2.6322   -1.9334 H   0  0  0  0  0  0  0  0  0  0  0  0
    2.3018   -3.3329   -0.8268 H   0  0  0  0  0  0  0  0  0  0  0  0
    0.0326   -4.3309   -0.5123 H   0  0  0  0  0  0  0  0  0  0  0  0
    0.6254   -3.5709    0.9632 H   0  0  0  0  0  0  0  0  0  0  0  0
    3.7731   -1.3345   -0.7584 H   0  0  0  0  0  0  0  0  0  0  0  0
   -0.0453    1.2406    1.1147 H   0  0  0  0  0  0  0  0  0  0  0  0
   -1.5201    0.6846   -1.6193 H   0  0  0  0  0  0  0  0  0  0  0  0
   -2.7388   -1.3719    1.9635 H   0  0  0  0  0  0  0  0  0  0  0  0
   -4.7877    0.0031    2.0547 H   0  0  0  0  0  0  0  0  0  0  0  0
   -5.2174    1.7181    0.3326 H   0  0  0  0  0  0  0  0  0  0  0  0
    5.7569    2.1888   -0.8658 H   0  0  0  0  0  0  0  0  0  0  0  0
    4.0607    2.6010   -1.1974 H   0  0  0  0  0  0  0  0  0  0  0  0
    4.7855    1.1206   -1.9014 H   0  0  0  0  0  0  0  0  0  0  0  0
  1 14  1  0  0  0  0
  2 17  1  0  0  0  0
  3 13  1  0  0  0  0
  3 20  1  0  0  0  0
  4  8  1  0  0  0  0
  4  9  2  0  0  0  0
  5  6  1  0  0  0  0
  5  7  1  0  0  0  0
  5 10  2  0  0  0  0
  6  8  1  0  0  0  0
  6 21  1  0  0  0  0
  6 22  1  0  0  0  0
  7  9  1  0  0  0  0
  7 11  2  0  0  0  0
  8 23  1  0  0  0  0
  8 24  1  0  0  0  0
  9 12  1  0  0  0  0
 10 13  1  0  0  0  0
 10 25  1  0  0  0  0
 11 14  1  0  0  0  0
 11 26  1  0  0  0  0
 12 15  2  0  0  0  0
 12 16  1  0  0  0  0
 13 14  2  0  0  0  0
 15 17  1  0  0  0  0
 15 27  1  0  0  0  0
 16 18  2  0  0  0  0
 16 28  1  0  0  0  0
 17 19  2  0  0  0  0
 18 19  1  0  0  0  0
 18 29  1  0  0  0  0
 19 30  1  0  0  0  0
 20 31  1  0  0  0  0
 20 32  1  0  0  0  0
 20 33  1  0  0  0  0
M  END
> <PUBCHEM_COMPOUND_CID>
44138049

> <PUBCHEM_CONFORMER_RMSD>
0.6

> <PUBCHEM_CONFORMER_DIVERSEORDER>
3
2
6
4
1
8
5
7

> <PUBCHEM_MMFF94_PARTIAL_CHARGES>
26
1 -0.18
10 -0.15
11 -0.15
12 0.09
13 0.08
14 0.18
15 -0.15
16 -0.15
17 0.18
18 -0.15
19 -0.15
2 -0.18
20 0.28
25 0.15
26 0.15
27 0.15
28 0.15
29 0.15
3 -0.36
30 0.15
4 -0.7
5 -0.14
6 0.14
7 0.09
8 0.25
9 0.28

> <PUBCHEM_EFFECTIVE_ROTOR_COUNT>
2.4

> <PUBCHEM_PHARMACOPHORE_FEATURES>
5
1 3 acceptor
1 4 acceptor
6 12 15 16 17 18 19 rings
6 4 5 6 7 8 9 rings
6 5 7 10 11 13 14 rings

> <PUBCHEM_HEAVY_ATOM_COUNT>
20

> <PUBCHEM_ATOM_DEF_STEREO_COUNT>
0

> <PUBCHEM_ATOM_UDEF_STEREO_COUNT>
0

> <PUBCHEM_BOND_DEF_STEREO_COUNT>
0

> <PUBCHEM_BOND_UDEF_STEREO_COUNT>
0

> <PUBCHEM_ISOTOPIC_ATOM_COUNT>
0

> <PUBCHEM_COMPONENT_COUNT>
1

> <PUBCHEM_CACTVS_TAUTO_COUNT>
1

> <PUBCHEM_CONFORMER_ID>
02A17E4100000003

> <PUBCHEM_MMFF94_ENERGY>
71.8852

> <PUBCHEM_FEATURE_SELFOVERLAP>
25.397

> <PUBCHEM_SHAPE_FINGERPRINT>
10165383 225 18339657723086118145
10411042 1 17548990957147149807
10608611 8 18189617134046731775
10871710 139 16892872197928775620
11471102 20 18272090461310339930
11543360 7 14261344791060911984
12403259 415 18188780435720599869
12654215 9 18266172834100919782
12730499 353 18410576141974126547
12769317 202 18340477864097156533
12892183 10 17240203235343794026
13134695 92 17910664376369312855
13140716 1 18270959175815253890
14790565 3 18269855201764780976
15219456 202 18262805056023890547
16945 1 18201719513877996994
1813 80 12252181797468726202
18186145 218 18060137690950322224
18219364 16 18412549825016623553
19049666 15 17973446503685202411
204376 136 18411142449885396883
20645477 56 18338802333209825072
20645477 70 18057883546179484551
21033648 29 18409719681797337673
21524375 3 18339922722373336307
21639500 275 18272080544621282443
22907989 373 17834106820593886758
231179 274 18409729551911031000
23175994 123 17763471616883126759
23536364 44 17766578858460008980
23557571 272 17459485359664396205
23558518 356 17905884039583579602
23559900 14 17972878055641418475
238 59 18125692670305839901
25 1 18272371966489056082
2748010 2 17770218576929041720
350125 39 18125448750217307459
474 4 18202283610708739553
495365 180 18122321520499952821
54672768 99 18117269255617066684
6049 1 18044389236019368983
633830 44 17916318155485220053
77492 1 16916498126403803675
7808743 9 18117848917741637924
81228 2 17546433939766329755

> <PUBCHEM_SHAPE_MULTIPOLES>
404.48
8.28
3.32
1.3
0.75
1.34
-0.17
-6.47
-0.99
-1.27
-0.55
0.84
-0.82
1.64

> <PUBCHEM_SHAPE_SELFOVERLAP>
865.058

> <PUBCHEM_SHAPE_VOLUME>
226.6

> <PUBCHEM_COORDINATE_TYPE>
2
5
10

$$$$
