49831018
  -OEChem-10052115193D

 43 46  0     0  0  0  0  0  0999 V2000
   -8.0868   -1.2989   -1.1461 Cl  0  0  0  0  0  0  0  0  0  0  0  0
    0.1062    4.0309   -1.4447 S   0  0  0  0  0  0  0  0  0  0  0  0
    1.7551   -2.1191    0.2697 S   0  0  0  0  0  0  0  0  0  0  0  0
   -1.7009    0.4916    1.0058 O   0  0  0  0  0  0  0  0  0  0  0  0
    3.2714    0.6923    0.5975 N   0  0  0  0  0  0  0  0  0  0  0  0
    0.5659    2.3885    0.4979 N   0  0  0  0  0  0  0  0  0  0  0  0
    5.3205   -0.3094   -0.0822 N   0  0  0  0  0  0  0  0  0  0  0  0
   -1.5606    2.1848   -0.6160 N   0  0  0  0  0  0  0  0  0  0  0  0
    5.4863   -2.6519   -0.6674 N   0  0  0  0  0  0  0  0  0  0  0  0
   -3.4776    0.8610   -0.4692 N   0  0  0  0  0  0  0  0  0  0  0  0
    2.8368    2.9858    1.3053 C   0  0  0  0  0  0  0  0  0  0  0  0
    3.8612    1.9852    0.7720 C   0  0  0  0  0  0  0  0  0  0  0  0
    1.6751    3.2011    0.3663 C   0  0  0  0  0  0  0  0  0  0  0  0
    4.0034   -0.4334    0.1754 C   0  0  0  0  0  0  0  0  0  0  0  0
    3.3927   -1.6721    0.0180 C   0  0  0  0  0  0  0  0  0  0  0  0
    4.1569   -2.7595   -0.4031 C   0  0  0  0  0  0  0  0  0  0  0  0
    1.6115    4.1509   -0.6317 C   0  0  0  0  0  0  0  0  0  0  0  0
   -0.3244    2.7356   -0.4048 C   0  0  0  0  0  0  0  0  0  0  0  0
    3.3765   -3.9491   -0.5119 C   0  0  0  0  0  0  0  0  0  0  0  0
    2.0581   -3.7409   -0.1763 C   0  0  0  0  0  0  0  0  0  0  0  0
    5.9755   -1.4142   -0.4838 C   0  0  0  0  0  0  0  0  0  0  0  0
   -4.4205   -0.1152   -0.0691 C   0  0  0  0  0  0  0  0  0  0  0  0
   -2.2055    1.1066    0.0719 C   0  0  0  0  0  0  0  0  0  0  0  0
   -5.6456   -0.2143   -0.7286 C   0  0  0  0  0  0  0  0  0  0  0  0
   -4.1245   -0.9786    0.9859 C   0  0  0  0  0  0  0  0  0  0  0  0
   -6.5747   -1.1768   -0.3334 C   0  0  0  0  0  0  0  0  0  0  0  0
   -5.0536   -1.9408    1.3812 C   0  0  0  0  0  0  0  0  0  0  0  0
   -6.2786   -2.0402    0.7215 C   0  0  0  0  0  0  0  0  0  0  0  0
    3.3324    3.9468    1.4896 H   0  0  0  0  0  0  0  0  0  0  0  0
    2.4473    2.6416    2.2719 H   0  0  0  0  0  0  0  0  0  0  0  0
    4.6923    1.9259    1.4849 H   0  0  0  0  0  0  0  0  0  0  0  0
    4.2660    2.3440   -0.1823 H   0  0  0  0  0  0  0  0  0  0  0  0
    2.2859    0.5531    0.7924 H   0  0  0  0  0  0  0  0  0  0  0  0
    2.3511    4.8861   -0.9155 H   0  0  0  0  0  0  0  0  0  0  0  0
    3.7629   -4.9118   -0.8216 H   0  0  0  0  0  0  0  0  0  0  0  0
    1.2573   -4.4668   -0.1722 H   0  0  0  0  0  0  0  0  0  0  0  0
   -2.0861    2.6125   -1.3737 H   0  0  0  0  0  0  0  0  0  0  0  0
    7.0336   -1.2887   -0.6848 H   0  0  0  0  0  0  0  0  0  0  0  0
   -3.7640    1.4533   -1.2445 H   0  0  0  0  0  0  0  0  0  0  0  0
   -5.8754    0.4597   -1.5510 H   0  0  0  0  0  0  0  0  0  0  0  0
   -3.2006   -0.9663    1.5459 H   0  0  0  0  0  0  0  0  0  0  0  0
   -4.8243   -2.6137    2.2026 H   0  0  0  0  0  0  0  0  0  0  0  0
   -6.9929   -2.7949    1.0405 H   0  0  0  0  0  0  0  0  0  0  0  0
  1 26  1  0  0  0  0
  2 17  1  0  0  0  0
  2 18  1  0  0  0  0
  3 15  1  0  0  0  0
  3 20  1  0  0  0  0
  4 23  2  0  0  0  0
  5 12  1  0  0  0  0
  5 14  1  0  0  0  0
  5 33  1  0  0  0  0
  6 13  1  0  0  0  0
  6 18  2  0  0  0  0
  7 14  2  0  0  0  0
  7 21  1  0  0  0  0
  8 18  1  0  0  0  0
  8 23  1  0  0  0  0
  8 37  1  0  0  0  0
  9 16  1  0  0  0  0
  9 21  2  0  0  0  0
 10 22  1  0  0  0  0
 10 23  1  0  0  0  0
 10 39  1  0  0  0  0
 11 12  1  0  0  0  0
 11 13  1  0  0  0  0
 11 29  1  0  0  0  0
 11 30  1  0  0  0  0
 12 31  1  0  0  0  0
 12 32  1  0  0  0  0
 13 17  2  0  0  0  0
 14 15  1  0  0  0  0
 15 16  2  0  0  0  0
 16 19  1  0  0  0  0
 17 34  1  0  0  0  0
 19 20  2  0  0  0  0
 19 35  1  0  0  0  0
 20 36  1  0  0  0  0
 21 38  1  0  0  0  0
 22 24  2  0  0  0  0
 22 25  1  0  0  0  0
 24 26  1  0  0  0  0
 24 40  1  0  0  0  0
 25 27  2  0  0  0  0
 25 41  1  0  0  0  0
 26 28  2  0  0  0  0
 27 28  1  0  0  0  0
 27 42  1  0  0  0  0
 28 43  1  0  0  0  0
M  END
> <PUBCHEM_COMPOUND_CID>
49831018

> <PUBCHEM_CONFORMER_RMSD>
1.2

> <PUBCHEM_CONFORMER_DIVERSEORDER>
1
186
68
54
274
59
153
193
35
17
275
83
171
173
225
53
75
112
47
105
178
156
236
56
138
107
45
213
260
212
32
133
234
116
110
46
246
237
209
97
16
18
120
118
162
219
206
250
226
185
220
172
232
20
202
102
227
60
25
228
100
144
180
160
262
266
141
77
150
251
271
235
117
27
81
204
207
99
119
123
131
39
175
243
182
233
161
10
48
222
190
241
82
159
124
26
164
91
134
87
238
158
163
136
223
187
192
137
22
14
12
149
221
252
106
166
264
38
257
93
253
208
92
201
194
34
11
2
210
183
148
114
24
143
256
101
176
6
135
121
113
139
258
28
198
64
58
69
167
179
30
155
4
98
88
269
142
145
259
111
13
248
147
229
94
195
7
74
43
265
240
66
9
169
272
5
177
165
218
247
132
255
254
37
55
242
125
200
73
189
122
78
249
267
33
174
127
67
126
154
23
263
89
151
95
109
103
191
205
36
130
270
146
65
79
197
215
19
50
96
62
217
196
140
230
224
231
42
8
211
41
188
108
72
184
203
181
268
21
104
3
86
170
85
199
76
84
239
63
90
115
29
168
128
52
273
71
31
44
214
49
40
80
15
51
244
152
216
70
245
129
261
157
61
57

> <PUBCHEM_MMFF94_PARTIAL_CHARGES>
39
1 -0.18
10 -0.55
11 0.18
12 0.37
13 0.05
14 0.41
15 0.04
16 0.26
17 -0.11
18 0.44
19 -0.15
2 -0.08
20 -0.11
21 0.47
22 0.12
23 0.69
24 -0.15
25 -0.15
26 0.18
27 -0.15
28 -0.15
3 -0.08
33 0.4
34 0.15
35 0.15
36 0.15
37 0.37
38 0.15
39 0.37
4 -0.57
40 0.15
41 0.15
42 0.15
43 0.15
5 -0.87
6 -0.57
7 -0.62
8 -0.49
9 -0.57

> <PUBCHEM_EFFECTIVE_ROTOR_COUNT>
8

> <PUBCHEM_PHARMACOPHORE_FEATURES>
10
1 10 donor
1 4 acceptor
1 5 donor
1 8 donor
3 5 7 14 cation
3 7 9 21 cation
5 2 6 13 17 18 rings
5 3 15 16 19 20 rings
6 22 24 25 26 27 28 rings
6 7 9 14 15 16 21 rings

> <PUBCHEM_HEAVY_ATOM_COUNT>
28

> <PUBCHEM_ATOM_DEF_STEREO_COUNT>
0

> <PUBCHEM_ATOM_UDEF_STEREO_COUNT>
0

> <PUBCHEM_BOND_DEF_STEREO_COUNT>
0

> <PUBCHEM_BOND_UDEF_STEREO_COUNT>
0

> <PUBCHEM_ISOTOPIC_ATOM_COUNT>
0

> <PUBCHEM_COMPONENT_COUNT>
1

> <PUBCHEM_CACTVS_TAUTO_COUNT>
15

> <PUBCHEM_CONFORMER_ID>
02F85C6A00000001

> <PUBCHEM_MMFF94_ENERGY>
61.5256

> <PUBCHEM_FEATURE_SELFOVERLAP>
50.988

> <PUBCHEM_SHAPE_FINGERPRINT>
10316853 100 18336264655946264002
10864689 126 18260542299849360443
117089 54 18269562641487768974
11828532 37 17749676297950514891
12107183 9 18199480861777292185
12202916 173 18115296886796996746
13402501 40 18335139812606566626
13533116 47 18201156667362740545
1361 2 18339076098477678915
13989917 61 18339080522727237791
14725015 67 18262223453111886514
15145343 12 18269575887600075823
15419008 42 18044345345743888373
15803439 3 16885864903520535580
15927050 60 17835808873536929252
17852330 134 18268122329564770077
19315092 285 17918276458635225089
1979834 28 18267577086417058208
20775530 9 18263370179019773776
21133410 38 17843112873182445991
21307412 95 18193270785116133989
21682296 61 18411702102042127277
23524908 199 18339625804054661509
23559900 14 18334573594794767721
3421961 26 18411699910849690369
404807 14 18052825745842927755
437795 96 18118690048279380099
4435113 14 17533801526648118779
46194498 28 17968089888682211149
5309563 4 18411700946126381460
86090 222 18408882966670482426
9555976 147 17131283359561613785

> <PUBCHEM_SHAPE_MULTIPOLES>
550.04
17.32
5.93
1.12
27.66
2.62
-0.06
-16.07
2.07
-7.66
1.23
0.67
0.34
2.06

> <PUBCHEM_SHAPE_SELFOVERLAP>
1158.689

> <PUBCHEM_SHAPE_VOLUME>
310.6

> <PUBCHEM_COORDINATE_TYPE>
2
5
10

$$$$
