135485273
  -OEChem-10052120443D

 40 42  0     0  0  0  0  0  0999 V2000
    0.3997   -0.4479    0.4972 S   0  0  0  0  0  0  0  0  0  0  0  0
   -4.9072   -1.4387   -1.4750 O   0  0  0  0  0  0  0  0  0  0  0  0
   -6.0643   -0.5272    0.8827 O   0  0  0  0  0  0  0  0  0  0  0  0
    1.4900    2.5375   -1.6390 O   0  0  0  0  0  0  0  0  0  0  0  0
    2.4421    0.7745   -0.4552 N   0  0  0  0  0  0  0  0  0  0  0  0
    2.9777   -1.1155    0.8394 N   0  0  0  0  0  0  0  0  0  0  0  0
   -2.3823    0.9497   -0.3424 C   0  0  0  0  0  0  0  0  0  0  0  0
   -1.0925    1.4698   -0.7684 C   0  0  0  0  0  0  0  0  0  0  0  0
    0.1170    0.9540   -0.4669 C   0  0  0  0  0  0  0  0  0  0  0  0
   -3.0388   -0.0062   -1.1175 C   0  0  0  0  0  0  0  0  0  0  0  0
   -4.2759   -0.5052   -0.7096 C   0  0  0  0  0  0  0  0  0  0  0  0
   -2.9629    1.4067    0.8407 C   0  0  0  0  0  0  0  0  0  0  0  0
   -4.8565   -0.0480    0.4734 C   0  0  0  0  0  0  0  0  0  0  0  0
   -4.2000    0.9080    1.2485 C   0  0  0  0  0  0  0  0  0  0  0  0
    1.3981    1.5402   -0.9388 C   0  0  0  0  0  0  0  0  0  0  0  0
    2.1246   -0.3084    0.3166 C   0  0  0  0  0  0  0  0  0  0  0  0
    4.3317   -0.8339    0.5774 C   0  0  0  0  0  0  0  0  0  0  0  0
    5.0504   -0.0031    1.4370 C   0  0  0  0  0  0  0  0  0  0  0  0
    4.9547   -1.3854   -0.5421 C   0  0  0  0  0  0  0  0  0  0  0  0
    6.3920    0.2761    1.1770 C   0  0  0  0  0  0  0  0  0  0  0  0
    6.2964   -1.1064   -0.8020 C   0  0  0  0  0  0  0  0  0  0  0  0
   -4.6217   -2.8076   -1.1940 C   0  0  0  0  0  0  0  0  0  0  0  0
    7.0152   -0.2756    0.0576 C   0  0  0  0  0  0  0  0  0  0  0  0
   -6.5875   -0.0074    2.1035 C   0  0  0  0  0  0  0  0  0  0  0  0
   -1.1542    2.3627   -1.3871 H   0  0  0  0  0  0  0  0  0  0  0  0
   -2.5937   -0.3671   -2.0424 H   0  0  0  0  0  0  0  0  0  0  0  0
   -2.4628    2.1520    1.4549 H   0  0  0  0  0  0  0  0  0  0  0  0
   -4.5901    1.3087    2.1777 H   0  0  0  0  0  0  0  0  0  0  0  0
    3.3962    1.0329   -0.6819 H   0  0  0  0  0  0  0  0  0  0  0  0
    4.5740    0.4311    2.3121 H   0  0  0  0  0  0  0  0  0  0  0  0
    4.4032   -2.0342   -1.2177 H   0  0  0  0  0  0  0  0  0  0  0  0
    6.9517    0.9231    1.8462 H   0  0  0  0  0  0  0  0  0  0  0  0
    6.7815   -1.5358   -1.6737 H   0  0  0  0  0  0  0  0  0  0  0  0
    8.0599   -0.0582   -0.1447 H   0  0  0  0  0  0  0  0  0  0  0  0
   -5.2037   -3.4272   -1.8817 H   0  0  0  0  0  0  0  0  0  0  0  0
   -4.9090   -3.0586   -0.1681 H   0  0  0  0  0  0  0  0  0  0  0  0
   -3.5584   -3.0169   -1.3485 H   0  0  0  0  0  0  0  0  0  0  0  0
   -5.9472   -0.2580    2.9561 H   0  0  0  0  0  0  0  0  0  0  0  0
   -6.7862    1.0674    2.0324 H   0  0  0  0  0  0  0  0  0  0  0  0
   -7.5514   -0.4979    2.2754 H   0  0  0  0  0  0  0  0  0  0  0  0
  1  9  1  0  0  0  0
  1 16  1  0  0  0  0
  2 11  1  0  0  0  0
  2 22  1  0  0  0  0
  3 13  1  0  0  0  0
  3 24  1  0  0  0  0
  4 15  2  0  0  0  0
  5 15  1  0  0  0  0
  5 16  1  0  0  0  0
  5 29  1  0  0  0  0
  6 16  2  0  0  0  0
  6 17  1  0  0  0  0
  7  8  1  0  0  0  0
  7 10  2  0  0  0  0
  7 12  1  0  0  0  0
  8  9  2  3  0  0  0
  8 25  1  0  0  0  0
  9 15  1  0  0  0  0
 10 11  1  0  0  0  0
 10 26  1  0  0  0  0
 11 13  2  0  0  0  0
 12 14  2  0  0  0  0
 12 27  1  0  0  0  0
 13 14  1  0  0  0  0
 14 28  1  0  0  0  0
 17 18  2  0  0  0  0
 17 19  1  0  0  0  0
 18 20  1  0  0  0  0
 18 30  1  0  0  0  0
 19 21  2  0  0  0  0
 19 31  1  0  0  0  0
 20 23  2  0  0  0  0
 20 32  1  0  0  0  0
 21 23  1  0  0  0  0
 21 33  1  0  0  0  0
 22 35  1  0  0  0  0
 22 36  1  0  0  0  0
 22 37  1  0  0  0  0
 23 34  1  0  0  0  0
 24 38  1  0  0  0  0
 24 39  1  0  0  0  0
 24 40  1  0  0  0  0
M  END
> <PUBCHEM_COMPOUND_CID>
135485273

> <PUBCHEM_CONFORMER_RMSD>
0.8

> <PUBCHEM_CONFORMER_DIVERSEORDER>
1
5
4
3
2

> <PUBCHEM_MMFF94_PARTIAL_CHARGES>
34
1 -0.24
10 -0.15
11 0.08
12 -0.15
13 0.08
14 -0.15
15 0.62
16 0.65
17 0.18
18 -0.15
19 -0.15
2 -0.36
20 -0.15
21 -0.15
22 0.28
23 -0.15
24 0.28
25 0.15
26 0.15
27 0.15
28 0.15
29 0.37
3 -0.36
30 0.15
31 0.15
32 0.15
33 0.15
34 0.15
4 -0.57
5 -0.49
6 -0.63
7 0.03
8 -0.18
9 0.12

> <PUBCHEM_EFFECTIVE_ROTOR_COUNT>
4.4

> <PUBCHEM_PHARMACOPHORE_FEATURES>
7
1 2 acceptor
1 3 acceptor
1 4 acceptor
1 5 donor
5 1 5 9 15 16 rings
6 17 18 19 20 21 23 rings
6 7 10 11 12 13 14 rings

> <PUBCHEM_HEAVY_ATOM_COUNT>
24

> <PUBCHEM_ATOM_DEF_STEREO_COUNT>
0

> <PUBCHEM_ATOM_UDEF_STEREO_COUNT>
0

> <PUBCHEM_BOND_DEF_STEREO_COUNT>
0

> <PUBCHEM_BOND_UDEF_STEREO_COUNT>
1

> <PUBCHEM_ISOTOPIC_ATOM_COUNT>
0

> <PUBCHEM_COMPONENT_COUNT>
1

> <PUBCHEM_CACTVS_TAUTO_COUNT>
-1

> <PUBCHEM_CONFORMER_ID>
0813575900000001

> <PUBCHEM_MMFF94_ENERGY>
85.7419

> <PUBCHEM_FEATURE_SELFOVERLAP>
35.527

> <PUBCHEM_SHAPE_FINGERPRINT>
10 15 15554446322879640153
10319926 262 17060349525893411541
10447042 23 17022894624102590594
10803635 8 14923942345025204529
11089746 13 8214140755159462342
11315181 36 17203601610737814325
12516196 113 18186803561021867752
12596602 18 17632573864258514274
12616971 3 18336271227694418437
13673619 4 16805614689767354077
13685833 64 17676493851761018249
13782708 43 18267298726278099654
13862211 1 17749389244037457160
14251764 30 18201155452240013982
14341114 176 17632858603478980608
14350574 20 17385448726010920321
14849402 71 18200030784884174472
14933364 13 17275102825905967464
15142383 8 14764347107647378090
15348495 7 17346594200998336706
15461852 350 16415471646026157725
15537594 2 18334290946596250603
15716309 27 18410856542734311658
17780758 139 18060137652812425131
17844677 252 17203325615859922456
1813 80 18260840245719228836
18222031 100 18259976068524600388
18608769 82 13118299070416281481
20028762 73 18409729594618916254
20281389 69 13614513069692014522
21049683 271 17241060885059077308
21150785 3 14996291331340849122
21267235 1 18114188510414743036
21315759 148 17632578249604876110
23522609 53 18192742023318919548
23559900 14 18129928075042935977
24771293 8 18336540621271594692
2747138 104 18259993669205751184
2767999 5 10663817473098102414
2838139 119 8214145174322315342
312425 54 17917992763028670010
314194 84 18113614573676619898
34797466 226 18340778091908403740
351380 3 18260550008924753267
3737641 26 18196935466166926750
38695281 34 8790885194490860936
4073 2 18060420235548410846
4340502 62 17203610368239519438
4938544 92 18270681953194393209
5104073 3 17774163543145395913
5385378 56 11815627384561341996
59682541 35 18186802504976969160
8863177 126 17096383885068824729
9862886 166 16081098085942799745
9953998 17 17917706902932197555

> <PUBCHEM_SHAPE_MULTIPOLES>
470.19
18.57
1.89
1.55
8.59
0.65
-0.17
6.37
-6.18
-1.56
0.9
-1.07
-0.32
-1.18

> <PUBCHEM_SHAPE_SELFOVERLAP>
1005.845

> <PUBCHEM_SHAPE_VOLUME>
262.3

> <PUBCHEM_COORDINATE_TYPE>
2
5
10

$$$$
