49830808
  -OEChem-10052115193D

 37 39  0     0  0  0  0  0  0999 V2000
    5.1395   -1.5535   -0.1644 O   0  0  0  0  0  0  0  0  0  0  0  0
    1.1068    2.2669    0.0599 N   0  0  0  0  0  0  0  0  0  0  0  0
    2.4125   -3.2951    0.0228 N   0  0  0  0  0  0  0  0  0  0  0  0
   -0.8255    0.9408   -0.0171 N   0  0  0  0  0  0  0  0  0  0  0  0
   -0.9822    3.3314    0.1187 N   0  0  0  0  0  0  0  0  0  0  0  0
   -2.9775    2.0006    0.0432 N   0  0  0  0  0  0  0  0  0  0  0  0
    2.9153   -0.9360    0.4823 C   0  0  0  0  0  0  0  0  0  0  0  0
    2.1245    1.2964    0.0052 C   0  0  0  0  0  0  0  0  0  0  0  0
    1.9063    0.0255    0.5372 C   0  0  0  0  0  0  0  0  0  0  0  0
    4.1424   -0.6268   -0.1043 C   0  0  0  0  0  0  0  0  0  0  0  0
    2.6645   -2.2911    1.0569 C   0  0  0  0  0  0  0  0  0  0  0  0
    3.3516    1.6057   -0.5814 C   0  0  0  0  0  0  0  0  0  0  0  0
    4.3606    0.6442   -0.6363 C   0  0  0  0  0  0  0  0  0  0  0  0
   -0.3022    2.1754    0.0531 C   0  0  0  0  0  0  0  0  0  0  0  0
   -2.8083   -0.3647   -0.0908 C   0  0  0  0  0  0  0  0  0  0  0  0
   -2.1683    0.9308   -0.0177 C   0  0  0  0  0  0  0  0  0  0  0  0
   -4.0549   -0.5611    0.5035 C   0  0  0  0  0  0  0  0  0  0  0  0
   -2.1791   -1.4172   -0.7556 C   0  0  0  0  0  0  0  0  0  0  0  0
   -4.6722   -1.8101    0.4331 C   0  0  0  0  0  0  0  0  0  0  0  0
   -2.7962   -2.6660   -0.8260 C   0  0  0  0  0  0  0  0  0  0  0  0
   -4.0428   -2.8625   -0.2317 C   0  0  0  0  0  0  0  0  0  0  0  0
   -2.3148    3.1667    0.1094 C   0  0  0  0  0  0  0  0  0  0  0  0
    0.9770   -0.2291    1.0367 H   0  0  0  0  0  0  0  0  0  0  0  0
    3.5167   -2.6013    1.6737 H   0  0  0  0  0  0  0  0  0  0  0  0
    1.8020   -2.2668    1.7336 H   0  0  0  0  0  0  0  0  0  0  0  0
    3.5338    2.5921   -1.0003 H   0  0  0  0  0  0  0  0  0  0  0  0
    5.3117    0.8989   -1.0961 H   0  0  0  0  0  0  0  0  0  0  0  0
    1.4340    3.2249   -0.0220 H   0  0  0  0  0  0  0  0  0  0  0  0
   -4.5665    0.2363    1.0370 H   0  0  0  0  0  0  0  0  0  0  0  0
   -1.2114   -1.2934   -1.2360 H   0  0  0  0  0  0  0  0  0  0  0  0
    3.2518   -3.4216   -0.5421 H   0  0  0  0  0  0  0  0  0  0  0  0
    2.2363   -4.1956    0.4672 H   0  0  0  0  0  0  0  0  0  0  0  0
   -5.6418   -1.9641    0.8976 H   0  0  0  0  0  0  0  0  0  0  0  0
   -2.3072   -3.4853   -1.3450 H   0  0  0  0  0  0  0  0  0  0  0  0
    5.9126   -1.1600   -0.6041 H   0  0  0  0  0  0  0  0  0  0  0  0
   -4.5233   -3.8350   -0.2865 H   0  0  0  0  0  0  0  0  0  0  0  0
   -2.9164    4.0656    0.1606 H   0  0  0  0  0  0  0  0  0  0  0  0
  1 10  1  0  0  0  0
  1 35  1  0  0  0  0
  2  8  1  0  0  0  0
  2 14  1  0  0  0  0
  2 28  1  0  0  0  0
  3 11  1  0  0  0  0
  3 31  1  0  0  0  0
  3 32  1  0  0  0  0
  4 14  1  0  0  0  0
  4 16  2  0  0  0  0
  5 14  2  0  0  0  0
  5 22  1  0  0  0  0
  6 16  1  0  0  0  0
  6 22  2  0  0  0  0
  7  9  1  0  0  0  0
  7 10  2  0  0  0  0
  7 11  1  0  0  0  0
  8  9  2  0  0  0  0
  8 12  1  0  0  0  0
  9 23  1  0  0  0  0
 10 13  1  0  0  0  0
 11 24  1  0  0  0  0
 11 25  1  0  0  0  0
 12 13  2  0  0  0  0
 12 26  1  0  0  0  0
 13 27  1  0  0  0  0
 15 16  1  0  0  0  0
 15 17  2  0  0  0  0
 15 18  1  0  0  0  0
 17 19  1  0  0  0  0
 17 29  1  0  0  0  0
 18 20  2  0  0  0  0
 18 30  1  0  0  0  0
 19 21  2  0  0  0  0
 19 33  1  0  0  0  0
 20 21  1  0  0  0  0
 20 34  1  0  0  0  0
 21 36  1  0  0  0  0
 22 37  1  0  0  0  0
M  END
> <PUBCHEM_COMPOUND_CID>
49830808

> <PUBCHEM_CONFORMER_RMSD>
0.6

> <PUBCHEM_CONFORMER_DIVERSEORDER>
1
25
62
105
73
92
18
52
7
110
57
33
16
107
44
9
50
111
100
60
11
103
67
4
27
117
102
17
10
70
31
2
35
43
26
28
86
106
14
75
46
65
19
15
83
109
12
91
87
98
61
6
66
5
53
42
23
59
74
3
41
79
24
22
13
113
54
49
84
20
38
48
72
8
32
114
45
68
77
29
89
21
94
99
34
63
108
51
90
76
88
64
47
78
80
36
58
39
116
96
115
82
112
56
81
97
85
104
37
30
40
101
71
69
95
55
93

> <PUBCHEM_MMFF94_PARTIAL_CHARGES>
34
1 -0.53
10 0.08
11 0.41
12 -0.15
13 -0.15
14 0.72
16 0.62
17 -0.15
18 -0.15
19 -0.15
2 -0.6
20 -0.15
21 -0.15
22 0.47
23 0.15
26 0.15
27 0.15
28 0.4
29 0.15
3 -0.99
30 0.15
31 0.36
32 0.36
33 0.15
34 0.15
35 0.45
36 0.15
37 0.15
4 -0.62
5 -0.62
6 -0.62
7 -0.14
8 0.1
9 -0.15

> <PUBCHEM_EFFECTIVE_ROTOR_COUNT>
4

> <PUBCHEM_PHARMACOPHORE_FEATURES>
8
1 1 donor
1 2 donor
1 3 cation
1 3 donor
4 2 4 5 14 cation
6 15 17 18 19 20 21 rings
6 4 5 6 14 16 22 rings
6 7 8 9 10 12 13 rings

> <PUBCHEM_HEAVY_ATOM_COUNT>
22

> <PUBCHEM_ATOM_DEF_STEREO_COUNT>
0

> <PUBCHEM_ATOM_UDEF_STEREO_COUNT>
0

> <PUBCHEM_BOND_DEF_STEREO_COUNT>
0

> <PUBCHEM_BOND_UDEF_STEREO_COUNT>
0

> <PUBCHEM_ISOTOPIC_ATOM_COUNT>
0

> <PUBCHEM_COMPONENT_COUNT>
1

> <PUBCHEM_CACTVS_TAUTO_COUNT>
16

> <PUBCHEM_CONFORMER_ID>
02F85B9800000001

> <PUBCHEM_MMFF94_ENERGY>
69.5366

> <PUBCHEM_FEATURE_SELFOVERLAP>
40.597

> <PUBCHEM_SHAPE_FINGERPRINT>
10369192 42 16697773635542461808
10616163 171 18339643339208891334
11725454 13 13541648391781373843
12403259 327 14404361614223309007
12553582 1 18339352093292429979
12788726 201 18335134263745970035
13533116 47 17764870587148651847
13631057 29 18413389860748959728
138480 1 15673231649502045073
14178342 30 18265314141653284992
14767858 380 18045515355059884444
14866123 147 18341335488247448185
15042514 8 18411705357474915545
15196674 1 18410293635477290556
15352361 1 18339079397096828143
15537594 2 18266474267774759263
15927050 60 15098449821553007996
17492 89 18336828580783895682
20291156 8 18339359772598808293
21634736 98 18334295366454714520
21673915 165 18411419548622527882
21857420 4 15330064806070944150
2255824 54 17615686671468727597
22950370 63 18338524165447557619
23379529 103 18200042737735532262
235170 7 16515953873924383543
23559900 14 18411407419356056360
2871803 45 18335416919427203758
3004659 81 18114175358602572390
314173 41 18266745877306426245
3421961 26 18052819431945434537
3737641 26 18338812172700656754
4283 87 18196363943152853631
46194498 28 17170946244078395591
463206 1 18192434292932405939
5104073 3 18343016662806268184
5309563 4 18193562392147477227
56633871 153 18271816765226907539
7097593 13 18046621205589682362
7970288 3 18267865158469167103
9709674 26 18198060274845692590

> <PUBCHEM_SHAPE_MULTIPOLES>
421.98
9.8
4.18
0.8
1.91
0.65
0.01
-6.22
-0.39
-1.74
0.06
0.07
-0.26
-0.92

> <PUBCHEM_SHAPE_SELFOVERLAP>
921.779

> <PUBCHEM_SHAPE_VOLUME>
223.9

> <PUBCHEM_COORDINATE_TYPE>
2
5
10

$$$$
