44411048
  -OEChem-10062122003D

 51 54  0     1  0  0  0  0  0999 V2000
    5.9529   -3.6944   -1.3165 Cl  0  0  0  0  0  0  0  0  0  0  0  0
    3.7564   -1.8510   -2.0289 F   0  0  0  0  0  0  0  0  0  0  0  0
   -4.9550   -4.0004    0.0485 O   0  0  0  0  0  0  0  0  0  0  0  0
   -3.1446    2.9324   -0.4729 O   0  0  0  0  0  0  0  0  0  0  0  0
   -3.3579   -0.2765   -0.0806 N   0  0  1  0  0  0  0  0  0  0  0  0
   -7.0093   -2.9644    0.0222 N   0  0  0  0  0  0  0  0  0  0  0  0
    1.4006    3.8982    0.5586 N   0  0  0  0  0  0  0  0  0  0  0  0
    2.5586    0.0433   -0.4046 N   0  0  0  0  0  0  0  0  0  0  0  0
    3.1050    2.2097    0.3322 N   0  0  0  0  0  0  0  0  0  0  0  0
   -5.0697   -1.6985    0.6730 C   0  0  2  0  0  0  0  0  0  0  0  0
   -4.6202   -0.8688   -0.5283 C   0  0  0  0  0  0  0  0  0  0  0  0
   -3.8107   -1.9041    1.5152 C   0  0  0  0  0  0  0  0  0  0  0  0
   -2.6824   -1.3362    0.6669 C   0  0  0  0  0  0  0  0  0  0  0  0
   -2.5545    0.2229   -1.1866 C   0  0  0  0  0  0  0  0  0  0  0  0
   -5.6503   -3.0032    0.2264 C   0  0  0  0  0  0  0  0  0  0  0  0
   -1.5094    1.2024   -0.7229 C   0  0  0  0  0  0  0  0  0  0  0  0
   -1.8523    2.5078   -0.3887 C   0  0  0  0  0  0  0  0  0  0  0  0
   -0.1823    0.7956   -0.6277 C   0  0  0  0  0  0  0  0  0  0  0  0
    0.8016    1.7020   -0.1960 C   0  0  0  0  0  0  0  0  0  0  0  0
   -0.8681    3.4033    0.0398 C   0  0  0  0  0  0  0  0  0  0  0  0
    0.4676    3.0230    0.1445 C   0  0  0  0  0  0  0  0  0  0  0  0
    2.1457    1.3592   -0.0788 C   0  0  0  0  0  0  0  0  0  0  0  0
   -3.4059    4.2867   -0.1106 C   0  0  0  0  0  0  0  0  0  0  0  0
    2.6684    3.4441    0.6300 C   0  0  0  0  0  0  0  0  0  0  0  0
    3.6012   -0.7674    0.0711 C   0  0  0  0  0  0  0  0  0  0  0  0
    4.1890   -1.7158   -0.7659 C   0  0  0  0  0  0  0  0  0  0  0  0
    4.0482   -0.6237    1.3846 C   0  0  0  0  0  0  0  0  0  0  0  0
    5.2237   -2.5206   -0.2893 C   0  0  0  0  0  0  0  0  0  0  0  0
    5.0829   -1.4285    1.8611 C   0  0  0  0  0  0  0  0  0  0  0  0
    5.6707   -2.3771    1.0242 C   0  0  0  0  0  0  0  0  0  0  0  0
   -5.8091   -1.1494    1.2698 H   0  0  0  0  0  0  0  0  0  0  0  0
   -4.4808   -1.4954   -1.4195 H   0  0  0  0  0  0  0  0  0  0  0  0
   -5.3555   -0.0937   -0.7698 H   0  0  0  0  0  0  0  0  0  0  0  0
   -3.6138   -2.9387    1.8126 H   0  0  0  0  0  0  0  0  0  0  0  0
   -3.9008   -1.3169    2.4386 H   0  0  0  0  0  0  0  0  0  0  0  0
   -1.8705   -0.9580    1.2958 H   0  0  0  0  0  0  0  0  0  0  0  0
   -2.2847   -2.1172    0.0063 H   0  0  0  0  0  0  0  0  0  0  0  0
   -3.1944    0.7506   -1.9081 H   0  0  0  0  0  0  0  0  0  0  0  0
   -2.0990   -0.5938   -1.7634 H   0  0  0  0  0  0  0  0  0  0  0  0
    0.0661   -0.2312   -0.8834 H   0  0  0  0  0  0  0  0  0  0  0  0
   -7.5581   -2.1224    0.1642 H   0  0  0  0  0  0  0  0  0  0  0  0
   -7.5137   -3.7889   -0.2866 H   0  0  0  0  0  0  0  0  0  0  0  0
   -1.0847    4.4324    0.3122 H   0  0  0  0  0  0  0  0  0  0  0  0
    2.1590   -0.2922   -1.2770 H   0  0  0  0  0  0  0  0  0  0  0  0
   -4.4813    4.4506   -0.2373 H   0  0  0  0  0  0  0  0  0  0  0  0
   -2.8987    4.9899   -0.7800 H   0  0  0  0  0  0  0  0  0  0  0  0
   -3.1805    4.4742    0.9448 H   0  0  0  0  0  0  0  0  0  0  0  0
    3.4152    4.1539    0.9643 H   0  0  0  0  0  0  0  0  0  0  0  0
    3.5975    0.0974    2.0612 H   0  0  0  0  0  0  0  0  0  0  0  0
    5.4288   -1.3191    2.8849 H   0  0  0  0  0  0  0  0  0  0  0  0
    6.4753   -2.9979    1.4097 H   0  0  0  0  0  0  0  0  0  0  0  0
  1 28  1  0  0  0  0
  2 26  1  0  0  0  0
  3 15  2  0  0  0  0
  4 17  1  0  0  0  0
  4 23  1  0  0  0  0
  5 11  1  0  0  0  0
  5 13  1  0  0  0  0
  5 14  1  0  0  0  0
  6 15  1  0  0  0  0
  6 41  1  0  0  0  0
  6 42  1  0  0  0  0
  7 21  1  0  0  0  0
  7 24  2  0  0  0  0
  8 22  1  0  0  0  0
  8 25  1  0  0  0  0
  8 44  1  0  0  0  0
  9 22  2  0  0  0  0
  9 24  1  0  0  0  0
 10 11  1  0  0  0  0
 10 12  1  0  0  0  0
 10 15  1  0  0  0  0
 10 31  1  0  0  0  0
 11 32  1  0  0  0  0
 11 33  1  0  0  0  0
 12 13  1  0  0  0  0
 12 34  1  0  0  0  0
 12 35  1  0  0  0  0
 13 36  1  0  0  0  0
 13 37  1  0  0  0  0
 14 16  1  0  0  0  0
 14 38  1  0  0  0  0
 14 39  1  0  0  0  0
 16 17  1  0  0  0  0
 16 18  2  0  0  0  0
 17 20  2  0  0  0  0
 18 19  1  0  0  0  0
 18 40  1  0  0  0  0
 19 21  2  0  0  0  0
 19 22  1  0  0  0  0
 20 21  1  0  0  0  0
 20 43  1  0  0  0  0
 23 45  1  0  0  0  0
 23 46  1  0  0  0  0
 23 47  1  0  0  0  0
 24 48  1  0  0  0  0
 25 26  2  0  0  0  0
 25 27  1  0  0  0  0
 26 28  1  0  0  0  0
 27 29  2  0  0  0  0
 27 49  1  0  0  0  0
 28 30  2  0  0  0  0
 29 30  1  0  0  0  0
 29 50  1  0  0  0  0
 30 51  1  0  0  0  0
M  END
> <PUBCHEM_COMPOUND_CID>
44411048

> <PUBCHEM_CONFORMER_RMSD>
1

> <PUBCHEM_CONFORMER_DIVERSEORDER>
1
100
158
192
196
200
135
138
38
40
22
204
191
113
69
7
55
106
93
122
168
56
116
180
72
102
120
165
51
47
194
74
166
202
129
83
16
186
26
125
25
144
77
174
70
171
89
198
183
181
81
44
94
112
178
162
176
149
190
53
78
75
87
52
68
177
31
124
159
167
21
110
39
118
147
86
148
84
187
108
206
4
160
104
24
146
170
155
58
50
98
119
57
175
54
161
172
145
163
76
126
18
105
101
80
156
34
128
197
115
209
59
45
91
19
96
32
137
9
123
195
173
46
97
95
12
169
133
99
140
199
153
85
35
134
64
103
207
30
151
62
132
29
3
141
15
205
189
188
23
73
60
42
11
88
184
131
61
63
37
127
154
121
5
114
157
36
8
48
130
107
71
33
152
20
193
109
92
28
143
49
164
79
90
66
13
41
43
82
65
67
2
111
179
201
150
142
182
208
139
203
27
17
185
10
117
14
6
136

> <PUBCHEM_MMFF94_PARTIAL_CHARGES>
37
1 -0.18
10 0.06
11 0.27
13 0.27
14 0.41
15 0.57
16 -0.14
17 0.08
18 -0.15
2 -0.19
20 -0.15
21 0.31
22 0.41
23 0.28
24 0.47
25 0.1
26 0.19
27 -0.15
28 0.18
29 -0.15
3 -0.57
30 -0.15
4 -0.36
40 0.15
41 0.37
42 0.37
43 0.15
44 0.4
48 0.15
49 0.15
5 -0.81
50 0.15
51 0.15
6 -0.8
7 -0.62
8 -0.6
9 -0.62

> <PUBCHEM_EFFECTIVE_ROTOR_COUNT>
7

> <PUBCHEM_PHARMACOPHORE_FEATURES>
11
1 3 acceptor
1 4 acceptor
1 5 cation
1 6 donor
1 8 donor
3 7 9 24 cation
3 8 9 22 cation
5 5 10 11 12 13 rings
6 16 17 18 19 20 21 rings
6 25 26 27 28 29 30 rings
6 7 9 19 21 22 24 rings

> <PUBCHEM_HEAVY_ATOM_COUNT>
30

> <PUBCHEM_ATOM_DEF_STEREO_COUNT>
1

> <PUBCHEM_ATOM_UDEF_STEREO_COUNT>
0

> <PUBCHEM_BOND_DEF_STEREO_COUNT>
0

> <PUBCHEM_BOND_UDEF_STEREO_COUNT>
0

> <PUBCHEM_ISOTOPIC_ATOM_COUNT>
0

> <PUBCHEM_COMPONENT_COUNT>
1

> <PUBCHEM_CACTVS_TAUTO_COUNT>
6

> <PUBCHEM_CONFORMER_ID>
02A5A8A800000001

> <PUBCHEM_MMFF94_ENERGY>
103.9551

> <PUBCHEM_FEATURE_SELFOVERLAP>
55.994

> <PUBCHEM_SHAPE_FINGERPRINT>
10050765 1 18409448081045580772
10940486 97 18042694892501256812
11409948 41 17911503605560934871
117089 54 18341057307121257486
11963148 33 18048025561137860042
11991303 11 17823699656039562821
12107183 9 18270415918861878377
12422481 6 17703794708451964271
13140716 1 18340762642115208240
13533116 47 18266743674347081531
13540713 4 18337936948491889157
13785724 45 18411990178045948895
13911852 28 18338796836057920087
14028597 1 17417256588434014808
14725015 67 18335693949398210691
14866123 147 18336829672469869361
15274700 259 17170369851584570695
15510800 12 18340761568141081102
15927050 60 17976536110148290523
17138139 8 17822291233025558426
17492 89 18411134744772135636
17909252 39 18339084890750598192
18393751 57 17550087604147934160
19301679 30 18410857707171686707
19611394 137 18409158923458308258
20775530 9 18040719160035893394
21133410 58 18049430737615940759
21279426 13 18187632627644457997
21315759 227 18262788580460934030
21703447 108 18337661018465241776
22440779 20 16765128326348539398
23559900 14 18335972130145677981
3380486 145 17273953797484697756
3383291 50 18195245512758589425
3421961 26 18339360893400760265
345986 75 17774451589137609833
404807 14 18411992343026789531
4073 2 18195805172946201946
44062 13 18264490589715708332
484985 159 18262797346726171903
50009960 94 17899388030055293746
5104073 3 18343580746198863601
5309563 4 18411984641406628982
5486654 36 18334859359610773152
56633871 153 18202279221316272287
613672 6 18268407089152711606
7970288 3 18410856529834436366

> <PUBCHEM_SHAPE_MULTIPOLES>
575.34
14.98
6.19
1.26
0.36
2.47
0.07
-22.22
0.93
-3.95
0.13
1.41
-0.78
2.21

> <PUBCHEM_SHAPE_SELFOVERLAP>
1248.666

> <PUBCHEM_SHAPE_VOLUME>
316.4

> <PUBCHEM_COORDINATE_TYPE>
2
5
10

$$$$
