44219633
  -OEChem-10062122023D

 45 48  0     0  0  0  0  0  0999 V2000
   -0.0460   -4.7929   -0.3458 F   0  0  0  0  0  0  0  0  0  0  0  0
   -0.7364   -3.7186   -2.1056 F   0  0  0  0  0  0  0  0  0  0  0  0
    0.9854   -2.9952   -1.0030 F   0  0  0  0  0  0  0  0  0  0  0  0
    5.5305   -1.2925    0.3365 O   0  0  0  0  0  0  0  0  0  0  0  0
    1.6178    2.7152   -0.0013 N   0  0  0  0  0  0  0  0  0  0  0  0
   -0.3845    1.5898    0.0952 N   0  0  0  0  0  0  0  0  0  0  0  0
   -1.7281    1.6929   -0.0560 N   0  0  0  0  0  0  0  0  0  0  0  0
   -3.7313    2.5031   -0.4470 N   0  0  0  0  0  0  0  0  0  0  0  0
   -3.8555    1.1674   -0.1226 N   0  0  0  0  0  0  0  0  0  0  0  0
    2.3866    1.5427    0.3528 C   0  0  0  0  0  0  0  0  0  0  0  0
    2.5515    0.6485   -0.8784 C   0  0  0  0  0  0  0  0  0  0  0  0
    3.7423    1.9724    0.9188 C   0  0  0  0  0  0  0  0  0  0  0  0
    4.7954   -0.1255   -0.0153 C   0  0  0  0  0  0  0  0  0  0  0  0
    3.4423   -0.5533   -0.5794 C   0  0  0  0  0  0  0  0  0  0  0  0
    4.6314    0.7682    1.2133 C   0  0  0  0  0  0  0  0  0  0  0  0
    0.2792    2.7022   -0.1227 C   0  0  0  0  0  0  0  0  0  0  0  0
   -0.4031    3.9873   -0.5094 C   0  0  0  0  0  0  0  0  0  0  0  0
   -2.4519    2.8085   -0.4042 C   0  0  0  0  0  0  0  0  0  0  0  0
   -1.7348    3.9966   -0.6361 C   0  0  0  0  0  0  0  0  0  0  0  0
   -2.6495    0.6997    0.1076 C   0  0  0  0  0  0  0  0  0  0  0  0
   -2.3191   -0.6549    0.4790 C   0  0  0  0  0  0  0  0  0  0  0  0
   -1.4770   -1.4154   -0.3322 C   0  0  0  0  0  0  0  0  0  0  0  0
   -2.8395   -1.2025    1.6516 C   0  0  0  0  0  0  0  0  0  0  0  0
   -1.1553   -2.7236    0.0291 C   0  0  0  0  0  0  0  0  0  0  0  0
   -2.5177   -2.5107    2.0129 C   0  0  0  0  0  0  0  0  0  0  0  0
   -1.6757   -3.2713    1.2016 C   0  0  0  0  0  0  0  0  0  0  0  0
   -0.2571   -3.5381   -0.8394 C   0  0  0  0  0  0  0  0  0  0  0  0
    1.8690    0.9791    1.1410 H   0  0  0  0  0  0  0  0  0  0  0  0
    2.9882    1.2256   -1.7044 H   0  0  0  0  0  0  0  0  0  0  0  0
    1.5790    0.2901   -1.2352 H   0  0  0  0  0  0  0  0  0  0  0  0
    3.5986    2.5562    1.8362 H   0  0  0  0  0  0  0  0  0  0  0  0
    4.2564    2.6331    0.2082 H   0  0  0  0  0  0  0  0  0  0  0  0
    5.3618    0.4054   -0.7897 H   0  0  0  0  0  0  0  0  0  0  0  0
    2.9390   -1.2223    0.1309 H   0  0  0  0  0  0  0  0  0  0  0  0
    3.5911   -1.1468   -1.4895 H   0  0  0  0  0  0  0  0  0  0  0  0
    5.6152    1.1052    1.5614 H   0  0  0  0  0  0  0  0  0  0  0  0
    4.2082    0.1846    2.0413 H   0  0  0  0  0  0  0  0  0  0  0  0
    2.1380    3.5621   -0.2155 H   0  0  0  0  0  0  0  0  0  0  0  0
    6.3891   -1.0027    0.6894 H   0  0  0  0  0  0  0  0  0  0  0  0
    0.1969    4.8736   -0.6763 H   0  0  0  0  0  0  0  0  0  0  0  0
   -2.2630    4.9016   -0.9129 H   0  0  0  0  0  0  0  0  0  0  0  0
   -1.0700   -0.9999   -1.2520 H   0  0  0  0  0  0  0  0  0  0  0  0
   -3.4958   -0.6225    2.2961 H   0  0  0  0  0  0  0  0  0  0  0  0
   -2.9226   -2.9370    2.9261 H   0  0  0  0  0  0  0  0  0  0  0  0
   -1.4378   -4.2882    1.5010 H   0  0  0  0  0  0  0  0  0  0  0  0
  1 27  1  0  0  0  0
  2 27  1  0  0  0  0
  3 27  1  0  0  0  0
  4 13  1  0  0  0  0
  4 39  1  0  0  0  0
  5 10  1  0  0  0  0
  5 16  1  0  0  0  0
  5 38  1  0  0  0  0
  6  7  1  0  0  0  0
  6 16  2  0  0  0  0
  7 18  1  0  0  0  0
  7 20  1  0  0  0  0
  8  9  1  0  0  0  0
  8 18  2  0  0  0  0
  9 20  2  0  0  0  0
 10 11  1  0  0  0  0
 10 12  1  0  0  0  0
 10 28  1  0  0  0  0
 11 14  1  0  0  0  0
 11 29  1  0  0  0  0
 11 30  1  0  0  0  0
 12 15  1  0  0  0  0
 12 31  1  0  0  0  0
 12 32  1  0  0  0  0
 13 14  1  0  0  0  0
 13 15  1  0  0  0  0
 13 33  1  0  0  0  0
 14 34  1  0  0  0  0
 14 35  1  0  0  0  0
 15 36  1  0  0  0  0
 15 37  1  0  0  0  0
 16 17  1  0  0  0  0
 17 19  2  0  0  0  0
 17 40  1  0  0  0  0
 18 19  1  0  0  0  0
 19 41  1  0  0  0  0
 20 21  1  0  0  0  0
 21 22  2  0  0  0  0
 21 23  1  0  0  0  0
 22 24  1  0  0  0  0
 22 42  1  0  0  0  0
 23 25  2  0  0  0  0
 23 43  1  0  0  0  0
 24 26  2  0  0  0  0
 24 27  1  0  0  0  0
 25 26  1  0  0  0  0
 25 44  1  0  0  0  0
 26 45  1  0  0  0  0
M  END
> <PUBCHEM_COMPOUND_CID>
44219633

> <PUBCHEM_CONFORMER_RMSD>
0.8

> <PUBCHEM_CONFORMER_DIVERSEORDER>
1
10
84
68
23
60
75
55
20
71
28
15
72
82
59
77
21
8
43
22
6
66
87
70
83
56
37
58
18
44
69
30
31
74
49
25
79
2
11
24
12
85
52
48
67
86
45
76
47
9
3
41
32
81
57
27
38
14
54
13
63
73
36
29
42
65
64
61
19
50
16
39
33
5
80
26
62
53
40
4
17
78
46
34
51
7
35

> <PUBCHEM_MMFF94_PARTIAL_CHARGES>
31
1 -0.34
10 0.37
13 0.28
16 0.49
17 -0.14
18 0.14
19 -0.11
2 -0.34
20 0.13
21 0.05
22 -0.15
23 -0.15
24 -0.14
25 -0.15
26 -0.15
27 1.16
3 -0.34
38 0.4
39 0.4
4 -0.68
40 0.15
41 0.15
42 0.15
43 0.15
44 0.15
45 0.15
5 -0.82
6 -0.65
7 0.51
8 -0.34
9 -0.34

> <PUBCHEM_EFFECTIVE_ROTOR_COUNT>
5.2

> <PUBCHEM_PHARMACOPHORE_FEATURES>
10
1 4 acceptor
1 4 donor
1 5 donor
3 5 6 16 cation
3 7 8 18 cation
3 7 9 20 cation
5 7 8 9 18 20 rings
6 10 11 12 13 14 15 rings
6 21 22 23 24 25 26 rings
6 6 7 16 17 18 19 rings

> <PUBCHEM_HEAVY_ATOM_COUNT>
27

> <PUBCHEM_ATOM_DEF_STEREO_COUNT>
0

> <PUBCHEM_ATOM_UDEF_STEREO_COUNT>
0

> <PUBCHEM_BOND_DEF_STEREO_COUNT>
0

> <PUBCHEM_BOND_UDEF_STEREO_COUNT>
0

> <PUBCHEM_ISOTOPIC_ATOM_COUNT>
0

> <PUBCHEM_COMPONENT_COUNT>
1

> <PUBCHEM_CACTVS_TAUTO_COUNT>
2

> <PUBCHEM_CONFORMER_ID>
02A2BCF100000001

> <PUBCHEM_MMFF94_ENERGY>
52.54

> <PUBCHEM_FEATURE_SELFOVERLAP>
53.361

> <PUBCHEM_SHAPE_FINGERPRINT>
10483366 6 18198036240889628591
107951 10 17822292336399207859
11014199 57 17691124155781726142
11370993 70 18267579118194713716
11720765 8 16835970208581912047
12156800 1 15870042345277851281
12403259 327 16483344661378724371
12422481 6 18121248551981356075
12553582 1 17760935442857410980
13122387 1 17329715319070065806
13140716 1 18337964479358532361
13402501 40 18339928091282429252
13726171 33 17976581387425325132
138480 1 17114660714406334054
14251757 5 18337125513927510484
14647877 51 17691406313584598254
14725015 67 18047187453887881795
14844126 61 18264190560907606080
14931854 50 16752137411181100367
15927050 60 17691400815921237285
16719943 64 18264203604855204226
19026451 147 16900443435509304702
19930381 70 17978790112657797437
20028762 73 18342178921319741949
20531524 4 18051434897735015022
21133410 52 16324831553996558480
21344244 246 18194947558012904653
21795232 338 18051376676129340954
21796203 349 17395608398193674704
23559900 14 17404010428029179756
23728640 28 18338506542980334665
238918 7 18270398270445911982
3027735 51 18196369226126248873
3298306 158 18050843317244508260
373842 8 17544470852741260850
5265222 85 18265344923879678316
5309563 4 17181944774338496082
532947 4 17761488097774581141
70634741 139 17765764245499577950
7097593 13 17619643809173407921
9709674 26 18410288155379342880
9981440 41 18265612087397461723

> <PUBCHEM_SHAPE_MULTIPOLES>
503.05
7.74
6.37
1.29
10.82
0.37
-0.16
1.51
-2.49
-4.25
2.04
-0.48
1.16
1.05

> <PUBCHEM_SHAPE_SELFOVERLAP>
1098.638

> <PUBCHEM_SHAPE_VOLUME>
274.1

> <PUBCHEM_COORDINATE_TYPE>
2
5
10

$$$$
