24905208
  -OEChem-10052115143D

 42 45  0     0  0  0  0  0  0999 V2000
    2.9385    1.0456   -0.0448 N   0  0  0  0  0  0  0  0  0  0  0  0
    1.6519    1.4022    0.1267 N   0  0  0  0  0  0  0  0  0  0  0  0
    4.2916   -0.9490   -0.2740 N   0  0  0  0  0  0  0  0  0  0  0  0
    2.9375   -2.9751   -0.1654 N   0  0  0  0  0  0  0  0  0  0  0  0
    0.5695   -2.9295    0.1309 N   0  0  0  0  0  0  0  0  0  0  0  0
   -4.5474    0.1351    0.9045 N   0  0  0  0  0  0  0  0  0  0  0  0
    3.9535    2.0677   -0.1412 C   0  0  0  0  0  0  0  0  0  0  0  0
    1.8721   -0.8706    0.0310 C   0  0  0  0  0  0  0  0  0  0  0  0
    1.0076    0.2309    0.1722 C   0  0  0  0  0  0  0  0  0  0  0  0
    3.1265   -0.3031   -0.1088 C   0  0  0  0  0  0  0  0  0  0  0  0
   -0.4169    0.2065    0.3498 C   0  0  0  0  0  0  0  0  0  0  0  0
    3.7299    2.9705   -1.3570 C   0  0  0  0  0  0  0  0  0  0  0  0
    4.0428    2.8953    1.1433 C   0  0  0  0  0  0  0  0  0  0  0  0
    1.7991   -2.2592   -0.0015 C   0  0  0  0  0  0  0  0  0  0  0  0
   -1.2613    0.2307   -0.7564 C   0  0  0  0  0  0  0  0  0  0  0  0
   -2.6560    0.2070   -0.5869 C   0  0  0  0  0  0  0  0  0  0  0  0
   -0.9613    0.1590    1.6272 C   0  0  0  0  0  0  0  0  0  0  0  0
   -3.2158    0.1587    0.7070 C   0  0  0  0  0  0  0  0  0  0  0  0
   -2.3480    0.1356    1.7954 C   0  0  0  0  0  0  0  0  0  0  0  0
   -3.5290    0.2303   -1.6830 C   0  0  0  0  0  0  0  0  0  0  0  0
    4.0965   -2.2854   -0.2896 C   0  0  0  0  0  0  0  0  0  0  0  0
   -5.3555    0.1590   -0.1800 C   0  0  0  0  0  0  0  0  0  0  0  0
   -4.9017    0.2061   -1.4825 C   0  0  0  0  0  0  0  0  0  0  0  0
   -6.8240    0.1317    0.0829 C   0  0  0  0  0  0  0  0  0  0  0  0
    4.9163    1.5604   -0.2770 H   0  0  0  0  0  0  0  0  0  0  0  0
    2.7984    3.5412   -1.2721 H   0  0  0  0  0  0  0  0  0  0  0  0
    3.6743    2.3783   -2.2771 H   0  0  0  0  0  0  0  0  0  0  0  0
    4.5530    3.6847   -1.4646 H   0  0  0  0  0  0  0  0  0  0  0  0
    3.1235    3.4633    1.3244 H   0  0  0  0  0  0  0  0  0  0  0  0
    4.8725    3.6079    1.0869 H   0  0  0  0  0  0  0  0  0  0  0  0
    4.2112    2.2493    2.0122 H   0  0  0  0  0  0  0  0  0  0  0  0
   -0.8401    0.2675   -1.7602 H   0  0  0  0  0  0  0  0  0  0  0  0
   -0.3231    0.1390    2.5076 H   0  0  0  0  0  0  0  0  0  0  0  0
   -2.7496    0.0981    2.8064 H   0  0  0  0  0  0  0  0  0  0  0  0
   -3.1438    0.2675   -2.6994 H   0  0  0  0  0  0  0  0  0  0  0  0
    4.9884   -2.8891   -0.4191 H   0  0  0  0  0  0  0  0  0  0  0  0
   -0.2950   -2.4232    0.2531 H   0  0  0  0  0  0  0  0  0  0  0  0
    0.5612   -3.9402    0.1008 H   0  0  0  0  0  0  0  0  0  0  0  0
   -5.5828    0.2239   -2.3262 H   0  0  0  0  0  0  0  0  0  0  0  0
   -7.2771   -0.7517   -0.3779 H   0  0  0  0  0  0  0  0  0  0  0  0
   -7.0309    0.0951    1.1577 H   0  0  0  0  0  0  0  0  0  0  0  0
   -7.3002    1.0306   -0.3216 H   0  0  0  0  0  0  0  0  0  0  0  0
  1  2  1  0  0  0  0
  1  7  1  0  0  0  0
  1 10  1  0  0  0  0
  2  9  2  0  0  0  0
  3 10  2  0  0  0  0
  3 21  1  0  0  0  0
  4 14  1  0  0  0  0
  4 21  2  0  0  0  0
  5 14  1  0  0  0  0
  5 37  1  0  0  0  0
  5 38  1  0  0  0  0
  6 18  1  0  0  0  0
  6 22  2  0  0  0  0
  7 12  1  0  0  0  0
  7 13  1  0  0  0  0
  7 25  1  0  0  0  0
  8  9  1  0  0  0  0
  8 10  1  0  0  0  0
  8 14  2  0  0  0  0
  9 11  1  0  0  0  0
 11 15  2  0  0  0  0
 11 17  1  0  0  0  0
 12 26  1  0  0  0  0
 12 27  1  0  0  0  0
 12 28  1  0  0  0  0
 13 29  1  0  0  0  0
 13 30  1  0  0  0  0
 13 31  1  0  0  0  0
 15 16  1  0  0  0  0
 15 32  1  0  0  0  0
 16 18  2  0  0  0  0
 16 20  1  0  0  0  0
 17 19  2  0  0  0  0
 17 33  1  0  0  0  0
 18 19  1  0  0  0  0
 19 34  1  0  0  0  0
 20 23  2  0  0  0  0
 20 35  1  0  0  0  0
 21 36  1  0  0  0  0
 22 23  1  0  0  0  0
 22 24  1  0  0  0  0
 23 39  1  0  0  0  0
 24 40  1  0  0  0  0
 24 41  1  0  0  0  0
 24 42  1  0  0  0  0
M  END
> <PUBCHEM_COMPOUND_CID>
24905208

> <PUBCHEM_CONFORMER_RMSD>
0.6

> <PUBCHEM_CONFORMER_DIVERSEORDER>
2
5
4
3
6
1

> <PUBCHEM_MMFF94_PARTIAL_CHARGES>
28
1 0.31
10 0.11
11 0.05
14 0.41
15 -0.15
17 -0.15
18 0.31
19 -0.15
2 -0.71
20 -0.15
21 0.47
22 0.17
23 -0.15
24 0.14
3 -0.57
32 0.15
33 0.15
34 0.15
35 0.15
36 0.15
37 0.4
38 0.4
39 0.15
4 -0.62
5 -0.9
6 -0.62
7 0.26
9 0.23

> <PUBCHEM_EFFECTIVE_ROTOR_COUNT>
2

> <PUBCHEM_PHARMACOPHORE_FEATURES>
11
1 2 acceptor
1 5 cation
1 5 donor
1 6 acceptor
3 1 3 10 cation
3 3 4 21 cation
3 7 12 13 hydrophobe
5 1 2 8 9 10 rings
6 11 15 16 17 18 19 rings
6 3 4 8 10 14 21 rings
6 6 16 18 20 22 23 rings

> <PUBCHEM_HEAVY_ATOM_COUNT>
24

> <PUBCHEM_ATOM_DEF_STEREO_COUNT>
0

> <PUBCHEM_ATOM_UDEF_STEREO_COUNT>
0

> <PUBCHEM_BOND_DEF_STEREO_COUNT>
0

> <PUBCHEM_BOND_UDEF_STEREO_COUNT>
0

> <PUBCHEM_ISOTOPIC_ATOM_COUNT>
0

> <PUBCHEM_COMPONENT_COUNT>
1

> <PUBCHEM_CACTVS_TAUTO_COUNT>
5

> <PUBCHEM_CONFORMER_ID>
017C05F800000002

> <PUBCHEM_MMFF94_ENERGY>
62.4116

> <PUBCHEM_FEATURE_SELFOVERLAP>
56.131

> <PUBCHEM_SHAPE_FINGERPRINT>
10366900 7 17895768283151855290
10411042 1 18050849906352737118
10595046 47 18343581859217371617
10693767 8 18059585638004418182
12107183 9 17623862219131070369
12236239 1 17703791384009866699
12403259 415 17748825194519764533
12616971 3 18060417993643313727
12730499 353 18335989752079261273
13009979 54 17344633621769581042
13140716 1 18338797940049177250
13533116 47 18342740706593188505
13631057 29 17840857796688541631
13836976 161 18343585131407620502
13911987 19 18120387693989981724
13955234 65 18411412904329369842
14170010 4 18411697682626378744
15375358 24 17749105621229127041
15961568 22 16733272355913187028
17138139 8 17557113376306829367
17818456 19 17271176310516215817
17844677 252 18337113367686384581
1813 80 17914347779599632102
1979834 28 18114744940102154556
200 152 18272367521451066971
20369508 70 17968651610733544810
20511986 3 17632279177788509281
20554085 129 17774147050830124064
20600515 1 16081652291685996405
20612939 158 18412546500453512253
20645477 70 18335421248812422874
21033648 29 17748819701177569317
21065201 7 16587749728439129091
22149856 69 18263943154239085339
2255824 54 18342743988175315758
23557571 272 17095526154256156471
23559900 14 16660369151649917330
239999 70 18114180826296426442
25147074 1 17917163696933146465
3004659 81 17775287131742667551
312423 11 18130799905816472705
42630746 31 18413668020042196170
4340502 62 18341045319444592410
46194498 28 18259985950748288461
474 4 18270399515938955128
495365 180 18408320016785593592
5281201 14 18260547775452186413
6025842 7 18411983572149000870
6034566 193 17828494896166588676
6327066 14 17973729366100854948
70251023 43 18268996384171626426
7471813 234 18059290955575724464
8272917 22 18412266124977795597

> <PUBCHEM_SHAPE_MULTIPOLES>
464.02
12.23
2.78
1.33
13.84
0.54
0.09
-2.96
-1.74
-6.56
-0.25
1.01
-0.49
0.21

> <PUBCHEM_SHAPE_SELFOVERLAP>
1035.677

> <PUBCHEM_SHAPE_VOLUME>
244.6

> <PUBCHEM_COORDINATE_TYPE>
2
5
10

$$$$
