59604787
  -OEChem-10062121573D

 54 57  0     0  0  0  0  0  0999 V2000
   -0.8842   -4.3369    0.2844 S   0  0  0  0  0  0  0  0  0  0  0  0
   -3.0995   -3.2347   -1.3494 F   0  0  0  0  0  0  0  0  0  0  0  0
   -0.6876    4.6270   -0.2071 O   0  0  0  0  0  0  0  0  0  0  0  0
   -4.0061    1.4195    1.3662 O   0  0  0  0  0  0  0  0  0  0  0  0
    0.1285   -4.4832    1.3208 O   0  0  0  0  0  0  0  0  0  0  0  0
   -2.0025   -5.2674    0.2297 O   0  0  0  0  0  0  0  0  0  0  0  0
   -2.5165    2.2146   -0.2585 N   0  0  0  0  0  0  0  0  0  0  0  0
    5.5719    0.0440   -0.1971 N   0  0  0  0  0  0  0  0  0  0  0  0
    6.2274   -2.2373    0.0097 N   0  0  0  0  0  0  0  0  0  0  0  0
   -1.4277    1.9733   -1.2150 C   0  0  0  0  0  0  0  0  0  0  0  0
   -2.9016    3.6150   -0.0730 C   0  0  0  0  0  0  0  0  0  0  0  0
   -0.0768    2.3132   -0.6375 C   0  0  0  0  0  0  0  0  0  0  0  0
   -1.8068    4.3846    0.6556 C   0  0  0  0  0  0  0  0  0  0  0  0
    0.2244    3.6023   -0.1692 C   0  0  0  0  0  0  0  0  0  0  0  0
   -3.0950    1.2371    0.5603 C   0  0  0  0  0  0  0  0  0  0  0  0
   -2.5710   -0.1304    0.4759 C   0  0  0  0  0  0  0  0  0  0  0  0
    0.9305    1.3379   -0.6013 C   0  0  0  0  0  0  0  0  0  0  0  0
    2.2028    1.6436   -0.1144 C   0  0  0  0  0  0  0  0  0  0  0  0
   -3.1038   -1.0535   -0.4240 C   0  0  0  0  0  0  0  0  0  0  0  0
    1.5052    3.9161    0.2930 C   0  0  0  0  0  0  0  0  0  0  0  0
   -1.5355   -2.7180    0.3551 C   0  0  0  0  0  0  0  0  0  0  0  0
    2.4907    2.9324    0.3286 C   0  0  0  0  0  0  0  0  0  0  0  0
   -1.5205   -0.5013    1.3155 C   0  0  0  0  0  0  0  0  0  0  0  0
   -2.5861   -2.3473   -0.4845 C   0  0  0  0  0  0  0  0  0  0  0  0
   -1.0028   -1.7950    1.2551 C   0  0  0  0  0  0  0  0  0  0  0  0
    3.2274    0.6224   -0.0802 C   0  0  0  0  0  0  0  0  0  0  0  0
   -4.2289   -0.6788   -1.3331 C   0  0  0  0  0  0  0  0  0  0  0  0
   -0.0388   -4.4051   -1.2789 C   0  0  0  0  0  0  0  0  0  0  0  0
    2.8981   -0.7172    0.0947 C   0  0  0  0  0  0  0  0  0  0  0  0
    4.5669    0.9480   -0.2201 C   0  0  0  0  0  0  0  0  0  0  0  0
    3.9043   -1.6766    0.1239 C   0  0  0  0  0  0  0  0  0  0  0  0
    5.2135   -1.2482   -0.0253 C   0  0  0  0  0  0  0  0  0  0  0  0
   -1.6070    2.5822   -2.1097 H   0  0  0  0  0  0  0  0  0  0  0  0
   -1.4483    0.9334   -1.5515 H   0  0  0  0  0  0  0  0  0  0  0  0
   -3.8277    3.6683    0.5081 H   0  0  0  0  0  0  0  0  0  0  0  0
   -3.0966    4.0443   -1.0621 H   0  0  0  0  0  0  0  0  0  0  0  0
   -1.4990    3.8887    1.5862 H   0  0  0  0  0  0  0  0  0  0  0  0
   -2.1957    5.3706    0.9332 H   0  0  0  0  0  0  0  0  0  0  0  0
    0.7002    0.3507   -0.9959 H   0  0  0  0  0  0  0  0  0  0  0  0
    1.7349    4.9205    0.6386 H   0  0  0  0  0  0  0  0  0  0  0  0
    3.4615    3.2087    0.7309 H   0  0  0  0  0  0  0  0  0  0  0  0
   -1.0967    0.2095    2.0204 H   0  0  0  0  0  0  0  0  0  0  0  0
   -0.1834   -2.0551    1.9186 H   0  0  0  0  0  0  0  0  0  0  0  0
   -3.9095    0.0934   -2.0402 H   0  0  0  0  0  0  0  0  0  0  0  0
   -4.5876   -1.5301   -1.9210 H   0  0  0  0  0  0  0  0  0  0  0  0
   -5.0831   -0.3089   -0.7562 H   0  0  0  0  0  0  0  0  0  0  0  0
    0.4154   -5.3938   -1.3743 H   0  0  0  0  0  0  0  0  0  0  0  0
   -0.7569   -4.2493   -2.0856 H   0  0  0  0  0  0  0  0  0  0  0  0
    0.7371   -3.6371   -1.2950 H   0  0  0  0  0  0  0  0  0  0  0  0
    1.8757   -1.0539    0.2372 H   0  0  0  0  0  0  0  0  0  0  0  0
    4.9135    1.9627   -0.3884 H   0  0  0  0  0  0  0  0  0  0  0  0
    3.6550   -2.7234    0.2652 H   0  0  0  0  0  0  0  0  0  0  0  0
    6.0577   -3.0830    0.5402 H   0  0  0  0  0  0  0  0  0  0  0  0
    7.1832   -1.9192   -0.0927 H   0  0  0  0  0  0  0  0  0  0  0  0
  1  5  2  0  0  0  0
  1  6  2  0  0  0  0
  1 21  1  0  0  0  0
  1 28  1  0  0  0  0
  2 24  1  0  0  0  0
  3 13  1  0  0  0  0
  3 14  1  0  0  0  0
  4 15  2  0  0  0  0
  7 10  1  0  0  0  0
  7 11  1  0  0  0  0
  7 15  1  0  0  0  0
  8 30  1  0  0  0  0
  8 32  2  0  0  0  0
  9 32  1  0  0  0  0
  9 53  1  0  0  0  0
  9 54  1  0  0  0  0
 10 12  1  0  0  0  0
 10 33  1  0  0  0  0
 10 34  1  0  0  0  0
 11 13  1  0  0  0  0
 11 35  1  0  0  0  0
 11 36  1  0  0  0  0
 12 14  2  0  0  0  0
 12 17  1  0  0  0  0
 13 37  1  0  0  0  0
 13 38  1  0  0  0  0
 14 20  1  0  0  0  0
 15 16  1  0  0  0  0
 16 19  2  0  0  0  0
 16 23  1  0  0  0  0
 17 18  2  0  0  0  0
 17 39  1  0  0  0  0
 18 22  1  0  0  0  0
 18 26  1  0  0  0  0
 19 24  1  0  0  0  0
 19 27  1  0  0  0  0
 20 22  2  0  0  0  0
 20 40  1  0  0  0  0
 21 24  2  0  0  0  0
 21 25  1  0  0  0  0
 22 41  1  0  0  0  0
 23 25  2  0  0  0  0
 23 42  1  0  0  0  0
 25 43  1  0  0  0  0
 26 29  1  0  0  0  0
 26 30  2  0  0  0  0
 27 44  1  0  0  0  0
 27 45  1  0  0  0  0
 27 46  1  0  0  0  0
 28 47  1  0  0  0  0
 28 48  1  0  0  0  0
 28 49  1  0  0  0  0
 29 31  2  0  0  0  0
 29 50  1  0  0  0  0
 30 51  1  0  0  0  0
 31 32  1  0  0  0  0
 31 52  1  0  0  0  0
M  END
> <PUBCHEM_COMPOUND_CID>
59604787

> <PUBCHEM_CONFORMER_RMSD>
0.8

> <PUBCHEM_CONFORMER_DIVERSEORDER>
1
144
112
86
100
92
23
125
22
140
60
81
75
122
91
155
134
120
30
54
52
101
168
78
58
102
32
66
105
110
24
126
148
94
62
51
106
169
113
124
41
123
17
133
135
59
115
79
163
45
85
129
10
132
154
47
152
40
35
130
18
88
90
142
89
16
96
26
161
82
68
98
99
38
121
143
108
50
27
36
138
87
139
164
84
153
31
21
104
44
48
158
65
127
145
28
165
111
131
167
3
150
141
95
119
15
33
147
73
25
39
136
151
146
20
157
80
74
103
53
170
63
2
97
128
46
72
162
137
69
4
114
70
116
12
117
9
109
166
71
61
56
7
34
160
149
57
118
8
67
42
93
5
76
49
11
107
83
55
156
37
77
14
13
19
6
64
159
29
43

> <PUBCHEM_MMFF94_PARTIAL_CHARGES>
40
1 1.2
10 0.44
11 0.3
12 -0.14
13 0.28
14 0.08
15 0.54
16 0.09
17 -0.15
19 -0.14
2 -0.19
20 -0.15
21 -0.01
22 -0.15
23 -0.15
24 0.19
25 -0.15
27 0.14
28 0.11
29 -0.15
3 -0.36
30 0.16
31 -0.15
32 0.41
39 0.15
4 -0.57
40 0.15
41 0.15
42 0.15
43 0.15
5 -0.65
50 0.15
51 0.15
52 0.15
53 0.4
54 0.4
6 -0.65
7 -0.66
8 -0.62
9 -0.9

> <PUBCHEM_EFFECTIVE_ROTOR_COUNT>
5

> <PUBCHEM_PHARMACOPHORE_FEATURES>
10
1 3 acceptor
1 4 acceptor
1 5 acceptor
1 6 acceptor
1 9 donor
3 8 9 32 cation
6 12 14 17 18 20 22 rings
6 16 19 21 23 24 25 rings
6 8 26 29 30 31 32 rings
7 3 7 10 11 12 13 14 rings

> <PUBCHEM_HEAVY_ATOM_COUNT>
32

> <PUBCHEM_ATOM_DEF_STEREO_COUNT>
0

> <PUBCHEM_ATOM_UDEF_STEREO_COUNT>
0

> <PUBCHEM_BOND_DEF_STEREO_COUNT>
0

> <PUBCHEM_BOND_UDEF_STEREO_COUNT>
0

> <PUBCHEM_ISOTOPIC_ATOM_COUNT>
0

> <PUBCHEM_COMPONENT_COUNT>
1

> <PUBCHEM_CACTVS_TAUTO_COUNT>
2

> <PUBCHEM_CONFORMER_ID>
038D7F3300000001

> <PUBCHEM_MMFF94_ENERGY>
104.7827

> <PUBCHEM_FEATURE_SELFOVERLAP>
50.776

> <PUBCHEM_SHAPE_FINGERPRINT>
10290309 65 18049441436078079924
10483366 6 18266722629377025517
10940486 97 18261683584587592132
1100329 8 18338236097949391547
11014199 57 18121786294529226906
11200772 71 18044688380882082518
11285246 1 17906408364927978445
11513181 2 17550375246686131743
12156800 1 16193617609378218333
12553582 1 18265064693862967972
12633257 1 18270975582274215801
12788726 201 18335413535383358448
13140716 1 18337684078540032761
138480 1 16392116588136540898
14251757 5 18265354879592316782
14659021 117 18338220635940590656
14725015 67 18411974737395887663
14866123 147 18267303136143486617
15320467 1 18410573951261821822
15420108 30 17769944472406861673
15927050 60 17764306146150391813
16719943 64 18192714436838240690
17492 89 17906452478210247538
17627616 140 17902505987248627839
19311894 1 18409166623707688442
19319366 153 17749113288067764314
19611394 137 16533727123395805459
19930381 70 17905608804998898131
20028762 73 18342738499343910893
20764821 26 17977386028009713734
20775438 99 17334455760669725287
20775530 9 18195247947455900226
21133410 171 17474614820084161450
21857420 4 16466064466396646455
23559900 14 17979628258272298945
3027735 51 18268424642446452487
3383291 50 18337948991737663347
3882209 13 17764550568718779986
4616759 239 18131059425875357240
463206 1 18192152826502853642
508706 21 18342750585140049294
5265222 85 18264789670486182204
5309563 4 17618513519857773270
9709674 26 17905041804759467429

> <PUBCHEM_SHAPE_MULTIPOLES>
616.7
8.8
7.78
1.09
12.58
2.19
0
3.6
0.62
-3.9
-0.26
-0.88
0.43
-0.49

> <PUBCHEM_SHAPE_SELFOVERLAP>
1340.915

> <PUBCHEM_SHAPE_VOLUME>
341.4

> <PUBCHEM_COORDINATE_TYPE>
2
5
10

$$$$
