49830283
  -OEChem-10052115173D

 49 52  0     1  0  0  0  0  0999 V2000
   -2.0477   -1.9817    0.2174 O   0  0  0  0  0  0  0  0  0  0  0  0
   -4.3825    1.5694   -2.4553 O   0  0  0  0  0  0  0  0  0  0  0  0
   -0.5376   -0.2135    0.2774 N   0  0  0  0  0  0  0  0  0  0  0  0
   -2.6212   -0.0124   -0.8190 N   0  0  0  0  0  0  0  0  0  0  0  0
    5.5993    1.8952    0.3930 N   0  0  0  0  0  0  0  0  0  0  0  0
    7.1881    0.1459   -0.0756 N   0  0  0  0  0  0  0  0  0  0  0  0
    1.7923   -0.9124    0.6884 C   0  0  0  0  0  0  0  0  0  0  0  0
    0.3552   -0.9153    1.2004 C   0  0  0  0  0  0  0  0  0  0  0  0
    2.2340    0.4740    0.2957 C   0  0  0  0  0  0  0  0  0  0  0  0
   -0.1636    1.1656   -0.0728 C   0  0  0  0  0  0  0  0  0  0  0  0
    1.3188    1.4033   -0.0366 C   0  0  0  0  0  0  0  0  0  0  0  0
    3.6868    0.7649    0.2692 C   0  0  0  0  0  0  0  0  0  0  0  0
   -1.7557   -0.8214   -0.0884 C   0  0  0  0  0  0  0  0  0  0  0  0
    4.7537   -0.1364    0.0124 C   0  0  0  0  0  0  0  0  0  0  0  0
   -3.9154   -0.4746   -1.2673 C   0  0  1  0  0  0  0  0  0  0  0  0
    4.2373    2.0071    0.5002 C   0  0  0  0  0  0  0  0  0  0  0  0
    5.9320    0.5994    0.0973 C   0  0  0  0  0  0  0  0  0  0  0  0
   -4.9691   -0.2282   -0.2093 C   0  0  0  0  0  0  0  0  0  0  0  0
   -4.2786    0.1581   -2.6134 C   0  0  0  0  0  0  0  0  0  0  0  0
    4.8660   -1.5043   -0.2850 C   0  0  0  0  0  0  0  0  0  0  0  0
   -4.8901    0.9022    0.6041 C   0  0  0  0  0  0  0  0  0  0  0  0
   -6.0193   -1.1316   -0.0475 C   0  0  0  0  0  0  0  0  0  0  0  0
    6.1443   -2.0265   -0.4737 C   0  0  0  0  0  0  0  0  0  0  0  0
    7.2363   -1.1765   -0.3596 C   0  0  0  0  0  0  0  0  0  0  0  0
   -5.8613    1.1291    1.5793 C   0  0  0  0  0  0  0  0  0  0  0  0
   -6.9906   -0.9049    0.9276 C   0  0  0  0  0  0  0  0  0  0  0  0
   -6.9116    0.2256    1.7410 C   0  0  0  0  0  0  0  0  0  0  0  0
    1.8569   -1.5687   -0.1873 H   0  0  0  0  0  0  0  0  0  0  0  0
    2.4343   -1.3226    1.4764 H   0  0  0  0  0  0  0  0  0  0  0  0
    0.0243   -1.9462    1.3620 H   0  0  0  0  0  0  0  0  0  0  0  0
    0.2871   -0.4006    2.1672 H   0  0  0  0  0  0  0  0  0  0  0  0
   -0.6679    1.8328    0.6345 H   0  0  0  0  0  0  0  0  0  0  0  0
   -0.5151    1.3983   -1.0823 H   0  0  0  0  0  0  0  0  0  0  0  0
    1.6292    2.4026   -0.3324 H   0  0  0  0  0  0  0  0  0  0  0  0
   -3.8349   -1.5583   -1.4236 H   0  0  0  0  0  0  0  0  0  0  0  0
   -2.4162    0.9715   -0.9438 H   0  0  0  0  0  0  0  0  0  0  0  0
    3.7935    2.9646    0.7370 H   0  0  0  0  0  0  0  0  0  0  0  0
    6.2581    2.6517    0.5151 H   0  0  0  0  0  0  0  0  0  0  0  0
   -5.2385   -0.2191   -2.9818 H   0  0  0  0  0  0  0  0  0  0  0  0
   -3.5051   -0.0472   -3.3611 H   0  0  0  0  0  0  0  0  0  0  0  0
    4.0066   -2.1571   -0.3798 H   0  0  0  0  0  0  0  0  0  0  0  0
   -4.0934    1.6326    0.4958 H   0  0  0  0  0  0  0  0  0  0  0  0
   -6.0934   -2.0151   -0.6760 H   0  0  0  0  0  0  0  0  0  0  0  0
    6.2825   -3.0767   -0.7072 H   0  0  0  0  0  0  0  0  0  0  0  0
    8.2403   -1.5668   -0.5042 H   0  0  0  0  0  0  0  0  0  0  0  0
   -5.8018    2.0108    2.2108 H   0  0  0  0  0  0  0  0  0  0  0  0
   -7.8087   -1.6080    1.0531 H   0  0  0  0  0  0  0  0  0  0  0  0
   -4.6125    1.9369   -3.3257 H   0  0  0  0  0  0  0  0  0  0  0  0
   -7.6683    0.4026    2.4997 H   0  0  0  0  0  0  0  0  0  0  0  0
  1 13  2  0  0  0  0
  2 19  1  0  0  0  0
  2 48  1  0  0  0  0
  3  8  1  0  0  0  0
  3 10  1  0  0  0  0
  3 13  1  0  0  0  0
  4 13  1  0  0  0  0
  4 15  1  0  0  0  0
  4 36  1  0  0  0  0
  5 16  1  0  0  0  0
  5 17  1  0  0  0  0
  5 38  1  0  0  0  0
  6 17  1  0  0  0  0
  6 24  2  0  0  0  0
  7  8  1  0  0  0  0
  7  9  1  0  0  0  0
  7 28  1  0  0  0  0
  7 29  1  0  0  0  0
  8 30  1  0  0  0  0
  8 31  1  0  0  0  0
  9 11  2  0  0  0  0
  9 12  1  0  0  0  0
 10 11  1  0  0  0  0
 10 32  1  0  0  0  0
 10 33  1  0  0  0  0
 11 34  1  0  0  0  0
 12 14  1  0  0  0  0
 12 16  2  0  0  0  0
 14 17  2  0  0  0  0
 14 20  1  0  0  0  0
 15 18  1  0  0  0  0
 15 19  1  0  0  0  0
 15 35  1  0  0  0  0
 16 37  1  0  0  0  0
 18 21  2  0  0  0  0
 18 22  1  0  0  0  0
 19 39  1  0  0  0  0
 19 40  1  0  0  0  0
 20 23  2  0  0  0  0
 20 41  1  0  0  0  0
 21 25  1  0  0  0  0
 21 42  1  0  0  0  0
 22 26  2  0  0  0  0
 22 43  1  0  0  0  0
 23 24  1  0  0  0  0
 23 44  1  0  0  0  0
 24 45  1  0  0  0  0
 25 27  2  0  0  0  0
 25 46  1  0  0  0  0
 26 27  1  0  0  0  0
 26 47  1  0  0  0  0
 27 49  1  0  0  0  0
M  END
> <PUBCHEM_COMPOUND_CID>
49830283

> <PUBCHEM_CONFORMER_RMSD>
0.8

> <PUBCHEM_CONFORMER_DIVERSEORDER>
1
65
12
112
128
70
113
11
116
10
43
68
51
79
52
36
119
136
42
39
92
77
154
35
45
155
90
126
83
108
61
48
24
72
60
156
101
95
91
19
141
134
21
84
22
8
20
129
159
33
16
57
74
152
98
153
23
81
17
49
121
110
46
56
150
106
114
13
125
87
139
146
54
86
76
124
137
99
29
14
158
7
50
130
133
44
59
123
58
37
115
32
71
111
132
140
135
27
109
2
73
105
143
5
94
66
89
131
93
151
18
55
38
53
41
82
103
40
6
67
144
15
63
25
148
138
157
97
28
117
120
26
78
34
122
149
4
69
31
127
3
145
64
75
30
100
118
104
142
85
9
62
107
102
47
80
88
147
96

> <PUBCHEM_MMFF94_PARTIAL_CHARGES>
39
1 -0.57
10 0.44
11 -0.29
12 -0.05
13 0.69
15 0.44
16 -0.3
17 0.11
18 -0.14
19 0.28
2 -0.68
20 -0.15
21 -0.15
22 -0.15
23 -0.15
24 0.16
25 -0.15
26 -0.15
27 -0.15
3 -0.66
34 0.15
36 0.37
37 0.15
38 0.27
4 -0.73
41 0.15
42 0.15
43 0.15
44 0.15
45 0.15
46 0.15
47 0.15
48 0.4
49 0.15
5 0.03
6 -0.57
7 0.14
8 0.3
9 -0.09

> <PUBCHEM_EFFECTIVE_ROTOR_COUNT>
6.8

> <PUBCHEM_PHARMACOPHORE_FEATURES>
11
1 1 acceptor
1 2 acceptor
1 2 donor
1 4 donor
1 5 cation
1 5 donor
1 6 acceptor
5 5 12 14 16 17 rings
6 18 21 22 25 26 27 rings
6 3 7 8 9 10 11 rings
6 6 14 17 20 23 24 rings

> <PUBCHEM_HEAVY_ATOM_COUNT>
27

> <PUBCHEM_ATOM_DEF_STEREO_COUNT>
0

> <PUBCHEM_ATOM_UDEF_STEREO_COUNT>
1

> <PUBCHEM_BOND_DEF_STEREO_COUNT>
0

> <PUBCHEM_BOND_UDEF_STEREO_COUNT>
0

> <PUBCHEM_ISOTOPIC_ATOM_COUNT>
0

> <PUBCHEM_COMPONENT_COUNT>
1

> <PUBCHEM_CACTVS_TAUTO_COUNT>
6

> <PUBCHEM_CONFORMER_ID>
02F8598B00000001

> <PUBCHEM_MMFF94_ENERGY>
58.9408

> <PUBCHEM_FEATURE_SELFOVERLAP>
55.937

> <PUBCHEM_SHAPE_FINGERPRINT>
10 15 16878220973755358072
10299344 5 18060421321757872654
10591671 39 16370729222797071470
10613725 11 17847062185646818106
11135926 11 18201712921282962054
11475781 23 14476697247243096473
11497681 19 18267297807044634159
11646440 116 18040437702429332700
11724838 91 11891336469931980634
12166972 35 18334862735523925224
12236239 1 18131635590730588193
12616971 3 17704349983003226749
12730499 353 18040151804089942642
13533116 47 18202282507503401128
13631057 29 13912330109960953009
13685833 64 18409732854830643266
14251752 14 17060340712588709115
14251764 18 17988926677694283125
14849402 71 18269279139154931209
14856354 85 15792022194477651211
14933364 13 18412266138005148265
15081414 286 18335979861181866860
15119646 104 17489870414885015774
15183329 4 18272363161795536990
15352257 5 18260834803758703411
15419008 47 17748825224168467269
1577012 14 17346876784530355188
17093844 174 14189568646509569623
17844677 252 17240198845961466933
18608769 82 17531253893191416043
20105231 36 17676497141664178755
21150785 3 14923950058934186694
21267235 1 18411142411863375648
21315763 178 16486967380425501542
21756936 100 17917713501025239787
220451 1 17560798857493450316
2303208 19 17967249784477855911
23081809 10 17418085555164385164
23198884 109 18272933847465177827
23522609 53 17702402799503518481
23536379 177 17989489627616088618
23559900 14 18339355383822960920
23569943 247 18191302676487844882
2747138 104 17240773912624116081
29717793 49 17560807637092314420
3009799 131 12463573958943702723
328311 84 18333735718993670338
34797466 226 17458071486563915566
3545911 37 18113616802522066306
4073 2 18264491857248363554
4098825 35 18273498978824369339
444769 64 18272368633520587927
5104073 3 16951110773873692721
59755656 520 18413388757011183395
7226269 152 15482674572290994395
9996256 80 18409448111457848915

> <PUBCHEM_SHAPE_MULTIPOLES>
523.98
22.23
1.8
1.49
3.09
0.08
-0.96
-2.1
2.48
1.93
0.09
-3.71
0.19
0.01

> <PUBCHEM_SHAPE_SELFOVERLAP>
1140.593

> <PUBCHEM_SHAPE_VOLUME>
282.3

> <PUBCHEM_COORDINATE_TYPE>
2
5
10

$$$$
