49830611
  -OEChem-10062121533D

 58 61  0     0  0  0  0  0  0999 V2000
    2.2391   -4.8110   -1.2481 F   0  0  0  0  0  0  0  0  0  0  0  0
    5.4613   -1.0862    0.5650 O   0  0  0  0  0  0  0  0  0  0  0  0
    3.3145    1.6506    0.0634 N   0  0  0  0  0  0  0  0  0  0  0  0
   -2.3636    1.2499   -0.3370 N   0  0  0  0  0  0  0  0  0  0  0  0
   -2.7196   -0.9306   -0.0206 N   0  0  0  0  0  0  0  0  0  0  0  0
    1.0756    1.1557   -0.3115 N   0  0  0  0  0  0  0  0  0  0  0  0
    2.3098    2.5787   -1.8147 N   0  0  0  0  0  0  0  0  0  0  0  0
   -4.9602    1.8966    0.4357 N   0  0  0  0  0  0  0  0  0  0  0  0
   -6.1417   -1.9407    2.6613 N   0  0  0  0  0  0  0  0  0  0  0  0
    4.7621    0.8349    1.9076 C   0  0  0  0  0  0  0  0  0  0  0  0
    3.3525    0.8531    1.2680 C   0  0  0  0  0  0  0  0  0  0  0  0
    5.8189    0.2337    0.9543 C   0  0  0  0  0  0  0  0  0  0  0  0
    4.6868   -0.0209    3.1893 C   0  0  0  0  0  0  0  0  0  0  0  0
    5.1973    2.2590    2.3000 C   0  0  0  0  0  0  0  0  0  0  0  0
   -1.1880    0.6330   -0.6571 C   0  0  0  0  0  0  0  0  0  0  0  0
   -3.2476    0.2688    0.0376 C   0  0  0  0  0  0  0  0  0  0  0  0
   -1.4324   -0.7096   -0.4543 C   0  0  0  0  0  0  0  0  0  0  0  0
    2.1837    1.8017   -0.7220 C   0  0  0  0  0  0  0  0  0  0  0  0
   -0.0065    1.3247   -1.0993 C   0  0  0  0  0  0  0  0  0  0  0  0
   -4.5847    0.6437    0.4317 C   0  0  0  0  0  0  0  0  0  0  0  0
   -5.5496   -0.4321    0.8404 C   0  0  0  0  0  0  0  0  0  0  0  0
   -2.7628    2.5730   -0.3314 C   0  0  0  0  0  0  0  0  0  0  0  0
   -0.4867   -1.7659   -0.6587 C   0  0  0  0  0  0  0  0  0  0  0  0
   -0.0085    2.0947   -2.2445 C   0  0  0  0  0  0  0  0  0  0  0  0
   -5.2056   -0.9058    2.2419 C   0  0  0  0  0  0  0  0  0  0  0  0
   -4.0253    2.8479    0.0478 C   0  0  0  0  0  0  0  0  0  0  0  0
    1.1897    2.7041   -2.5564 C   0  0  0  0  0  0  0  0  0  0  0  0
    0.0711   -1.9681   -1.9212 C   0  0  0  0  0  0  0  0  0  0  0  0
   -0.1235   -2.5924    0.4046 C   0  0  0  0  0  0  0  0  0  0  0  0
    0.9919   -2.9965   -2.1203 C   0  0  0  0  0  0  0  0  0  0  0  0
    0.7971   -3.6210    0.2056 C   0  0  0  0  0  0  0  0  0  0  0  0
    1.3549   -3.8232   -1.0569 C   0  0  0  0  0  0  0  0  0  0  0  0
    2.6310    1.2572    1.9902 H   0  0  0  0  0  0  0  0  0  0  0  0
    3.0370   -0.1730    1.0393 H   0  0  0  0  0  0  0  0  0  0  0  0
    6.7969    0.1858    1.4471 H   0  0  0  0  0  0  0  0  0  0  0  0
    5.9338    0.8374    0.0480 H   0  0  0  0  0  0  0  0  0  0  0  0
    5.6651   -0.0869    3.6786 H   0  0  0  0  0  0  0  0  0  0  0  0
    3.9840    0.4107    3.9111 H   0  0  0  0  0  0  0  0  0  0  0  0
    4.3526   -1.0417    2.9734 H   0  0  0  0  0  0  0  0  0  0  0  0
    6.1487    2.2417    2.8443 H   0  0  0  0  0  0  0  0  0  0  0  0
    5.3377    2.9025    1.4254 H   0  0  0  0  0  0  0  0  0  0  0  0
    4.4537    2.7342    2.9497 H   0  0  0  0  0  0  0  0  0  0  0  0
    4.1452    2.1370   -0.2512 H   0  0  0  0  0  0  0  0  0  0  0  0
    6.1633   -1.4102   -0.0246 H   0  0  0  0  0  0  0  0  0  0  0  0
   -5.4959   -1.2565    0.1194 H   0  0  0  0  0  0  0  0  0  0  0  0
   -6.5692   -0.0293    0.8077 H   0  0  0  0  0  0  0  0  0  0  0  0
   -2.0594    3.3427   -0.6204 H   0  0  0  0  0  0  0  0  0  0  0  0
   -0.8807    2.2181   -2.8744 H   0  0  0  0  0  0  0  0  0  0  0  0
   -5.2548   -0.0690    2.9479 H   0  0  0  0  0  0  0  0  0  0  0  0
   -4.1869   -1.3053    2.2883 H   0  0  0  0  0  0  0  0  0  0  0  0
   -4.3732    3.8753    0.0674 H   0  0  0  0  0  0  0  0  0  0  0  0
    1.2856    3.3275   -3.4390 H   0  0  0  0  0  0  0  0  0  0  0  0
   -0.2040   -1.3416   -2.7664 H   0  0  0  0  0  0  0  0  0  0  0  0
   -0.5473   -2.4476    1.3956 H   0  0  0  0  0  0  0  0  0  0  0  0
    1.4252   -3.1553   -3.1033 H   0  0  0  0  0  0  0  0  0  0  0  0
    1.0806   -4.2643    1.0333 H   0  0  0  0  0  0  0  0  0  0  0  0
   -6.0763   -2.7392    2.0312 H   0  0  0  0  0  0  0  0  0  0  0  0
   -5.8767   -2.2828    3.5840 H   0  0  0  0  0  0  0  0  0  0  0  0
  1 32  1  0  0  0  0
  2 12  1  0  0  0  0
  2 44  1  0  0  0  0
  3 11  1  0  0  0  0
  3 18  1  0  0  0  0
  3 43  1  0  0  0  0
  4 15  1  0  0  0  0
  4 16  1  0  0  0  0
  4 22  1  0  0  0  0
  5 16  2  0  0  0  0
  5 17  1  0  0  0  0
  6 18  1  0  0  0  0
  6 19  2  0  0  0  0
  7 18  2  0  0  0  0
  7 27  1  0  0  0  0
  8 20  2  0  0  0  0
  8 26  1  0  0  0  0
  9 25  1  0  0  0  0
  9 57  1  0  0  0  0
  9 58  1  0  0  0  0
 10 11  1  0  0  0  0
 10 12  1  0  0  0  0
 10 13  1  0  0  0  0
 10 14  1  0  0  0  0
 11 33  1  0  0  0  0
 11 34  1  0  0  0  0
 12 35  1  0  0  0  0
 12 36  1  0  0  0  0
 13 37  1  0  0  0  0
 13 38  1  0  0  0  0
 13 39  1  0  0  0  0
 14 40  1  0  0  0  0
 14 41  1  0  0  0  0
 14 42  1  0  0  0  0
 15 17  2  0  0  0  0
 15 19  1  0  0  0  0
 16 20  1  0  0  0  0
 17 23  1  0  0  0  0
 19 24  1  0  0  0  0
 20 21  1  0  0  0  0
 21 25  1  0  0  0  0
 21 45  1  0  0  0  0
 21 46  1  0  0  0  0
 22 26  2  0  0  0  0
 22 47  1  0  0  0  0
 23 28  2  0  0  0  0
 23 29  1  0  0  0  0
 24 27  2  0  0  0  0
 24 48  1  0  0  0  0
 25 49  1  0  0  0  0
 25 50  1  0  0  0  0
 26 51  1  0  0  0  0
 27 52  1  0  0  0  0
 28 30  1  0  0  0  0
 28 53  1  0  0  0  0
 29 31  2  0  0  0  0
 29 54  1  0  0  0  0
 30 32  2  0  0  0  0
 30 55  1  0  0  0  0
 31 32  1  0  0  0  0
 31 56  1  0  0  0  0
M  END
> <PUBCHEM_COMPOUND_CID>
49830611

> <PUBCHEM_CONFORMER_RMSD>
1

> <PUBCHEM_CONFORMER_DIVERSEORDER>
1
8
22
18
43
19
49
9
26
36
23
27
40
51
16
24
12
50
20
3
46
28
30
33
5
45
34
21
47
48
55
4
37
44
14
15
17
52
7
6
39
32
35
2
29
56
31
53
54
25
41
38
11
10
42
13

> <PUBCHEM_MMFF94_PARTIAL_CHARGES>
41
1 -0.19
11 0.37
12 0.28
15 -0.2
16 0.1
17 0.17
18 0.72
19 0.36
2 -0.68
20 0.47
21 0.06
22 -0.18
23 0.05
24 -0.15
25 0.27
26 0.02
27 0.16
28 -0.15
29 -0.15
3 -0.87
30 -0.15
31 -0.15
32 0.19
4 0.33
43 0.4
44 0.4
47 0.15
48 0.15
5 -0.57
51 0.15
52 0.15
53 0.15
54 0.15
55 0.15
56 0.15
57 0.36
58 0.36
6 -0.62
7 -0.62
8 -0.62
9 -0.99

> <PUBCHEM_EFFECTIVE_ROTOR_COUNT>
8

> <PUBCHEM_PHARMACOPHORE_FEATURES>
14
1 2 acceptor
1 2 donor
1 3 donor
1 6 acceptor
1 8 acceptor
1 9 cation
1 9 donor
3 10 13 14 hydrophobe
3 4 5 16 cation
4 3 6 7 18 cation
5 4 5 15 16 17 rings
6 23 28 29 30 31 32 rings
6 4 8 16 20 22 26 rings
6 6 7 18 19 24 27 rings

> <PUBCHEM_HEAVY_ATOM_COUNT>
32

> <PUBCHEM_ATOM_DEF_STEREO_COUNT>
0

> <PUBCHEM_ATOM_UDEF_STEREO_COUNT>
0

> <PUBCHEM_BOND_DEF_STEREO_COUNT>
0

> <PUBCHEM_BOND_UDEF_STEREO_COUNT>
0

> <PUBCHEM_ISOTOPIC_ATOM_COUNT>
0

> <PUBCHEM_COMPONENT_COUNT>
1

> <PUBCHEM_CACTVS_TAUTO_COUNT>
6

> <PUBCHEM_CONFORMER_ID>
02F85AD300000001

> <PUBCHEM_MMFF94_ENERGY>
86.2923

> <PUBCHEM_FEATURE_SELFOVERLAP>
71.165

> <PUBCHEM_SHAPE_FINGERPRINT>
10305334 12 17460855325129932305
11582403 64 16773218652695405060
12422481 6 18337099073655090498
12741549 16 16693839170115106859
12788726 201 17617662497821101134
12839892 36 18337677520203910899
13402501 40 18268426833671480158
13540713 4 18266183821265488645
14739800 52 17202777981934049881
14840074 17 18114730608381278020
14955137 171 18334013878361318288
15064986 96 18269263569950607138
15420108 30 18200296732994219687
15444296 8 16660631921716909725
15775530 1 17469863507779319772
16110190 28 18261100912244190448
16728300 4 17894900871862412017
17913733 40 18059860545522192203
1813 80 17095519565987970540
1979834 28 18410862052987500315
20505436 4 17464840238705575140
22182313 1 17827069611364252901
23559900 14 18118420462219582263
27425 322 16304331017308634460
3411729 13 18198618839621667281
5171179 24 17547834270808786661
5265222 85 18341055215941130428
7970288 3 17023167315465253264

> <PUBCHEM_SHAPE_MULTIPOLES>
610.53
12
4.71
2.64
1.21
4.59
0.78
-3.57
13.13
-1.49
-2.64
-1.56
-0.15
2.22

> <PUBCHEM_SHAPE_SELFOVERLAP>
1326.447

> <PUBCHEM_SHAPE_VOLUME>
336

> <PUBCHEM_COORDINATE_TYPE>
2
5
10

$$$$
