24905158
  -OEChem-10052115153D

 33 35  0     0  0  0  0  0  0999 V2000
    2.0042   -1.2965    0.7305 O   0  0  0  0  0  0  0  0  0  0  0  0
    5.2899    1.5826   -0.7354 O   0  0  0  0  0  0  0  0  0  0  0  0
   -1.7834    1.1932    0.0482 N   0  0  0  0  0  0  0  0  0  0  0  0
   -0.4518    1.3548    0.1601 N   0  0  0  0  0  0  0  0  0  0  0  0
   -3.4195   -0.5749   -0.1959 N   0  0  0  0  0  0  0  0  0  0  0  0
   -2.3669   -2.7744   -0.2657 N   0  0  0  0  0  0  0  0  0  0  0  0
   -0.0054   -3.0799   -0.1077 N   0  0  0  0  0  0  0  0  0  0  0  0
   -2.6447    2.3518    0.0614 C   0  0  0  0  0  0  0  0  0  0  0  0
   -2.1664   -0.1099   -0.0694 C   0  0  0  0  0  0  0  0  0  0  0  0
   -1.0012   -0.8554   -0.0319 C   0  0  0  0  0  0  0  0  0  0  0  0
    0.0188    0.1037    0.1106 C   0  0  0  0  0  0  0  0  0  0  0  0
   -2.3570    3.2808   -1.1207 C   0  0  0  0  0  0  0  0  0  0  0  0
   -2.5476    3.1105    1.3872 C   0  0  0  0  0  0  0  0  0  0  0  0
    1.4671   -0.1658    0.2018 C   0  0  0  0  0  0  0  0  0  0  0  0
   -1.1304   -2.2364   -0.1355 C   0  0  0  0  0  0  0  0  0  0  0  0
    2.4587    0.6837   -0.2309 C   0  0  0  0  0  0  0  0  0  0  0  0
   -3.4196   -1.9223   -0.2875 C   0  0  0  0  0  0  0  0  0  0  0  0
    3.6838    0.0330    0.0498 C   0  0  0  0  0  0  0  0  0  0  0  0
    3.3536   -1.1676    0.6342 C   0  0  0  0  0  0  0  0  0  0  0  0
    5.0177    0.4890   -0.2032 C   0  0  0  0  0  0  0  0  0  0  0  0
   -3.6761    1.9935   -0.0413 H   0  0  0  0  0  0  0  0  0  0  0  0
   -1.3501    3.7090   -1.0640 H   0  0  0  0  0  0  0  0  0  0  0  0
   -3.0735    4.1087   -1.1448 H   0  0  0  0  0  0  0  0  0  0  0  0
   -2.4350    2.7391   -2.0699 H   0  0  0  0  0  0  0  0  0  0  0  0
   -1.5481    3.5324    1.5406 H   0  0  0  0  0  0  0  0  0  0  0  0
   -2.7618    2.4471    2.2324 H   0  0  0  0  0  0  0  0  0  0  0  0
   -3.2680    3.9349    1.4144 H   0  0  0  0  0  0  0  0  0  0  0  0
    2.3248    1.6521   -0.6940 H   0  0  0  0  0  0  0  0  0  0  0  0
   -4.3945   -2.3862   -0.3928 H   0  0  0  0  0  0  0  0  0  0  0  0
    3.9277   -1.9988    1.0179 H   0  0  0  0  0  0  0  0  0  0  0  0
    0.9304   -2.7108   -0.0402 H   0  0  0  0  0  0  0  0  0  0  0  0
   -0.1461   -4.0780   -0.1893 H   0  0  0  0  0  0  0  0  0  0  0  0
    5.8335   -0.1889    0.1011 H   0  0  0  0  0  0  0  0  0  0  0  0
  1 14  1  0  0  0  0
  1 19  1  0  0  0  0
  2 20  2  0  0  0  0
  3  4  1  0  0  0  0
  3  8  1  0  0  0  0
  3  9  1  0  0  0  0
  4 11  2  0  0  0  0
  5  9  2  0  0  0  0
  5 17  1  0  0  0  0
  6 15  1  0  0  0  0
  6 17  2  0  0  0  0
  7 15  1  0  0  0  0
  7 31  1  0  0  0  0
  7 32  1  0  0  0  0
  8 12  1  0  0  0  0
  8 13  1  0  0  0  0
  8 21  1  0  0  0  0
  9 10  1  0  0  0  0
 10 11  1  0  0  0  0
 10 15  2  0  0  0  0
 11 14  1  0  0  0  0
 12 22  1  0  0  0  0
 12 23  1  0  0  0  0
 12 24  1  0  0  0  0
 13 25  1  0  0  0  0
 13 26  1  0  0  0  0
 13 27  1  0  0  0  0
 14 16  2  0  0  0  0
 16 18  1  0  0  0  0
 16 28  1  0  0  0  0
 17 29  1  0  0  0  0
 18 19  2  0  0  0  0
 18 20  1  0  0  0  0
 19 30  1  0  0  0  0
 20 33  1  0  0  0  0
M  END
> <PUBCHEM_COMPOUND_CID>
24905158

> <PUBCHEM_CONFORMER_RMSD>
0.6

> <PUBCHEM_CONFORMER_DIVERSEORDER>
1
6
7
4
11
5
10
3
12
2
9
8

> <PUBCHEM_MMFF94_PARTIAL_CHARGES>
23
1 -0.28
11 0.29
14 0.14
15 0.41
16 -0.15
17 0.47
18 -0.09
19 -0.01
2 -0.57
20 0.6
28 0.15
29 0.15
3 0.31
30 0.15
31 0.4
32 0.4
33 0.06
4 -0.71
5 -0.57
6 -0.62
7 -0.9
8 0.26
9 0.11

> <PUBCHEM_EFFECTIVE_ROTOR_COUNT>
3

> <PUBCHEM_PHARMACOPHORE_FEATURES>
11
1 1 acceptor
1 2 acceptor
1 4 acceptor
1 7 cation
1 7 donor
3 3 5 9 cation
3 5 6 17 cation
3 8 12 13 hydrophobe
5 1 14 16 18 19 rings
5 3 4 9 10 11 rings
6 5 6 9 10 15 17 rings

> <PUBCHEM_HEAVY_ATOM_COUNT>
20

> <PUBCHEM_ATOM_DEF_STEREO_COUNT>
0

> <PUBCHEM_ATOM_UDEF_STEREO_COUNT>
0

> <PUBCHEM_BOND_DEF_STEREO_COUNT>
0

> <PUBCHEM_BOND_UDEF_STEREO_COUNT>
0

> <PUBCHEM_ISOTOPIC_ATOM_COUNT>
0

> <PUBCHEM_COMPONENT_COUNT>
1

> <PUBCHEM_CACTVS_TAUTO_COUNT>
5

> <PUBCHEM_CONFORMER_ID>
017C05C600000001

> <PUBCHEM_MMFF94_ENERGY>
29.2822

> <PUBCHEM_FEATURE_SELFOVERLAP>
56.1

> <PUBCHEM_SHAPE_FINGERPRINT>
10319926 262 18198878415551757594
10411042 1 17907015428116455975
10616163 171 18411700997829935062
10967382 1 17690838965183264979
11582403 64 16519606224477939805
12107183 9 17903348222446818978
12173636 292 18411692162907659876
12390115 104 18129399115213028777
12553582 1 18195517319141521635
12788726 201 18410566314609315043
12954195 1 18270976699629792468
13140716 1 18267871764634510675
14178342 30 18264469764036365066
14508225 48 18196358428709991741
14790565 3 18340493249213862657
15042514 8 18338520862555105083
15342168 16 17980768130066847873
16752209 62 18340470206307533403
16945 1 18412818084495261923
17134986 127 17904478506723856221
1741750 31 18341611460885898840
18785283 64 17619078230921567179
204376 136 18195247702891268737
20510252 161 18343865511046007041
20739085 24 16756359535884481250
21029758 27 18191590959192745483
21049683 271 17684653512587616335
21267235 1 18265059217684960366
21524375 3 18119246169160219657
22907989 373 18336811036047681093
2297311 6 18199199540891272390
2334 1 18195804064427849539
23366157 5 17972039141439514698
23402539 116 18342170120103753055
23557571 272 18202293515373160148
23558518 356 18334303028254786746
23559900 14 18057604257990201030
23598291 2 17968648325178463322
266924 87 18340196411101782503
2748010 2 17979364053859862095
283562 15 18411697699431929067
3071541 12 17476924550056791601
3091708 16 9202810645914638441
350125 39 18411140238278251273
352729 6 18125714582912342699
4214541 1 18411136914289542404
474 4 17692527819634278801
5048184 11 18338238137642190920
5104073 3 18409164377628657960
559249 180 18265609893428899898
6327066 14 18116708517445462285
633830 44 17626951880579932989
68521 5 18339359772540773095
7364860 26 17332521784087851579
81228 2 18409732902059368633
9709674 26 18342461430772154558

> <PUBCHEM_SHAPE_MULTIPOLES>
374.95
7.97
3.66
0.84
10.74
0.44
0.08
2.93
-0.8
-4.31
-0.17
-0.22
0.52
-0.89

> <PUBCHEM_SHAPE_SELFOVERLAP>
823.185

> <PUBCHEM_SHAPE_VOLUME>
202.2

> <PUBCHEM_COORDINATE_TYPE>
2
5
10

$$$$
