46865419
  -OEChem-10052115143D

 49 53  0     0  0  0  0  0  0999 V2000
   -4.7575    1.2054    1.2826 S   0  0  0  0  0  0  0  0  0  0  0  0
    7.3093    2.0649    0.5979 F   0  0  0  0  0  0  0  0  0  0  0  0
    5.4417    2.9880   -0.0251 F   0  0  0  0  0  0  0  0  0  0  0  0
    5.6727    2.2830    2.0128 F   0  0  0  0  0  0  0  0  0  0  0  0
    1.4754   -0.5958    0.8788 O   0  0  0  0  0  0  0  0  0  0  0  0
    1.6893   -2.1768   -0.8485 N   0  0  0  0  0  0  0  0  0  0  0  0
   -3.6462   -3.0447    1.2752 N   0  0  0  0  0  0  0  0  0  0  0  0
   -5.0787   -1.2940    2.1482 N   0  0  0  0  0  0  0  0  0  0  0  0
   -2.9377    5.4284   -1.3199 N   0  0  0  0  0  0  0  0  0  0  0  0
   -3.3526   -0.8118    0.4945 C   0  0  0  0  0  0  0  0  0  0  0  0
   -2.9934   -2.1636    0.4874 C   0  0  0  0  0  0  0  0  0  0  0  0
   -1.9336   -2.6686   -0.3424 C   0  0  0  0  0  0  0  0  0  0  0  0
   -4.3939   -0.4584    1.3429 C   0  0  0  0  0  0  0  0  0  0  0  0
   -2.8598    0.3309   -0.2108 C   0  0  0  0  0  0  0  0  0  0  0  0
   -3.5323    1.4868    0.1224 C   0  0  0  0  0  0  0  0  0  0  0  0
   -0.6363   -2.1784   -0.1921 C   0  0  0  0  0  0  0  0  0  0  0  0
    0.3919   -2.6678   -0.9977 C   0  0  0  0  0  0  0  0  0  0  0  0
   -2.2027   -3.6480   -1.2985 C   0  0  0  0  0  0  0  0  0  0  0  0
   -3.3300    2.8296   -0.3682 C   0  0  0  0  0  0  0  0  0  0  0  0
    0.1229   -3.6473   -1.9537 C   0  0  0  0  0  0  0  0  0  0  0  0
   -1.1746   -4.1372   -2.1043 C   0  0  0  0  0  0  0  0  0  0  0  0
    3.6011   -0.9097   -0.0126 C   0  0  0  0  0  0  0  0  0  0  0  0
    2.1450   -1.2022    0.0494 C   0  0  0  0  0  0  0  0  0  0  0  0
   -4.6379   -2.5609    2.0486 C   0  0  0  0  0  0  0  0  0  0  0  0
    4.0775    0.3448    0.3683 C   0  0  0  0  0  0  0  0  0  0  0  0
    5.4439    0.6194    0.3095 C   0  0  0  0  0  0  0  0  0  0  0  0
   -2.1030    3.4596   -0.1923 C   0  0  0  0  0  0  0  0  0  0  0  0
   -4.3610    3.4975   -1.0196 C   0  0  0  0  0  0  0  0  0  0  0  0
    4.4911   -1.8897   -0.4523 C   0  0  0  0  0  0  0  0  0  0  0  0
    6.3339   -0.3606   -0.1302 C   0  0  0  0  0  0  0  0  0  0  0  0
    5.8574   -1.6151   -0.5113 C   0  0  0  0  0  0  0  0  0  0  0  0
    5.9534    1.9608    0.7156 C   0  0  0  0  0  0  0  0  0  0  0  0
   -1.9592    4.7476   -0.6821 C   0  0  0  0  0  0  0  0  0  0  0  0
   -4.1162    4.7839   -1.4726 C   0  0  0  0  0  0  0  0  0  0  0  0
   -2.0539    0.3081   -0.9347 H   0  0  0  0  0  0  0  0  0  0  0  0
   -0.4809   -1.4323    0.5747 H   0  0  0  0  0  0  0  0  0  0  0  0
   -3.2083   -4.0398   -1.4325 H   0  0  0  0  0  0  0  0  0  0  0  0
    0.9140   -4.0380   -2.5888 H   0  0  0  0  0  0  0  0  0  0  0  0
   -1.3842   -4.8992   -2.8493 H   0  0  0  0  0  0  0  0  0  0  0  0
    2.3553   -2.5680   -1.5088 H   0  0  0  0  0  0  0  0  0  0  0  0
   -5.1464   -3.2882    2.6717 H   0  0  0  0  0  0  0  0  0  0  0  0
    3.3918    1.1178    0.7074 H   0  0  0  0  0  0  0  0  0  0  0  0
   -1.2737    2.9739    0.3122 H   0  0  0  0  0  0  0  0  0  0  0  0
   -5.3318    3.0426   -1.1885 H   0  0  0  0  0  0  0  0  0  0  0  0
    4.1707   -2.8911   -0.7232 H   0  0  0  0  0  0  0  0  0  0  0  0
    7.4019   -0.1678   -0.1818 H   0  0  0  0  0  0  0  0  0  0  0  0
    6.5517   -2.3806   -0.8456 H   0  0  0  0  0  0  0  0  0  0  0  0
   -1.0222    5.2830   -0.5700 H   0  0  0  0  0  0  0  0  0  0  0  0
   -4.8866    5.3469   -1.9891 H   0  0  0  0  0  0  0  0  0  0  0  0
  1 13  1  0  0  0  0
  1 15  1  0  0  0  0
  2 32  1  0  0  0  0
  3 32  1  0  0  0  0
  4 32  1  0  0  0  0
  5 23  2  0  0  0  0
  6 17  1  0  0  0  0
  6 23  1  0  0  0  0
  6 40  1  0  0  0  0
  7 11  1  0  0  0  0
  7 24  2  0  0  0  0
  8 13  2  0  0  0  0
  8 24  1  0  0  0  0
  9 33  2  0  0  0  0
  9 34  1  0  0  0  0
 10 11  2  0  0  0  0
 10 13  1  0  0  0  0
 10 14  1  0  0  0  0
 11 12  1  0  0  0  0
 12 16  2  0  0  0  0
 12 18  1  0  0  0  0
 14 15  2  0  0  0  0
 14 35  1  0  0  0  0
 15 19  1  0  0  0  0
 16 17  1  0  0  0  0
 16 36  1  0  0  0  0
 17 20  2  0  0  0  0
 18 21  2  0  0  0  0
 18 37  1  0  0  0  0
 19 27  2  0  0  0  0
 19 28  1  0  0  0  0
 20 21  1  0  0  0  0
 20 38  1  0  0  0  0
 21 39  1  0  0  0  0
 22 23  1  0  0  0  0
 22 25  2  0  0  0  0
 22 29  1  0  0  0  0
 24 41  1  0  0  0  0
 25 26  1  0  0  0  0
 25 42  1  0  0  0  0
 26 30  2  0  0  0  0
 26 32  1  0  0  0  0
 27 33  1  0  0  0  0
 27 43  1  0  0  0  0
 28 34  2  0  0  0  0
 28 44  1  0  0  0  0
 29 31  2  0  0  0  0
 29 45  1  0  0  0  0
 30 31  1  0  0  0  0
 30 46  1  0  0  0  0
 31 47  1  0  0  0  0
 33 48  1  0  0  0  0
 34 49  1  0  0  0  0
M  END
> <PUBCHEM_COMPOUND_CID>
46865419

> <PUBCHEM_CONFORMER_RMSD>
0.8

> <PUBCHEM_CONFORMER_DIVERSEORDER>
4
81
55
114
109
32
42
68
103
21
1
61
87
19
99
85
117
101
84
93
11
59
46
26
2
77
49
94
97
60
45
118
110
79
17
116
74
56
113
95
50
9
67
86
83
71
24
25
90
115
20
107
13
41
111
22
58
27
64
98
28
7
6
91
66
75
47
92
108
82
102
65
72
57
106
62
100
112
78
104
29
76
73
80
69
35
15
52
3
96
23
51
53
16
63
39
44
12
54
38
37
70
40
43
48
14
31
18
105
30
10
34
5
33
8
36
89
88

> <PUBCHEM_MMFF94_PARTIAL_CHARGES>
47
1 -0.08
11 0.31
13 0.3
14 -0.15
15 -0.01
16 -0.15
17 0.12
18 -0.15
19 0.05
2 -0.34
20 -0.15
21 -0.15
22 0.09
23 0.54
24 0.47
25 -0.15
26 -0.14
27 -0.15
28 -0.15
29 -0.15
3 -0.34
30 -0.15
31 -0.15
32 1.16
33 0.16
34 0.16
35 0.15
36 0.15
37 0.15
38 0.15
39 0.15
4 -0.34
40 0.37
41 0.15
42 0.15
43 0.15
44 0.15
45 0.15
46 0.15
47 0.15
48 0.15
49 0.15
5 -0.57
6 -0.55
7 -0.62
8 -0.57
9 -0.62

> <PUBCHEM_EFFECTIVE_ROTOR_COUNT>
6

> <PUBCHEM_PHARMACOPHORE_FEATURES>
10
1 5 acceptor
1 6 donor
1 8 acceptor
1 9 acceptor
3 7 8 24 cation
5 1 10 13 14 15 rings
6 12 16 17 18 20 21 rings
6 22 25 26 29 30 31 rings
6 7 8 10 11 13 24 rings
6 9 19 27 28 33 34 rings

> <PUBCHEM_HEAVY_ATOM_COUNT>
34

> <PUBCHEM_ATOM_DEF_STEREO_COUNT>
0

> <PUBCHEM_ATOM_UDEF_STEREO_COUNT>
0

> <PUBCHEM_BOND_DEF_STEREO_COUNT>
0

> <PUBCHEM_BOND_UDEF_STEREO_COUNT>
0

> <PUBCHEM_ISOTOPIC_ATOM_COUNT>
0

> <PUBCHEM_COMPONENT_COUNT>
1

> <PUBCHEM_CACTVS_TAUTO_COUNT>
2

> <PUBCHEM_CONFORMER_ID>
02CB1C0B00000004

> <PUBCHEM_MMFF94_ENERGY>
98.428

> <PUBCHEM_FEATURE_SELFOVERLAP>
50.829

> <PUBCHEM_SHAPE_FINGERPRINT>
10290309 65 18343023264049805446
10462674 296 17765424740507300118
10556698 54 17331681241365739757
10675989 125 17040913166665442245
10930396 42 17967818275856903155
11204353 107 18412821392174234112
11399510 152 17895771585987274347
12107183 9 17536586305843822418
13947947 63 17605535683683713536
14415360 78 17989200448154150745
14739800 52 17970909955924518883
15419008 145 18335971061473879096
15484559 13 14462379140432385896
16067690 210 17971737020765509616
16992828 155 18342171227936134421
16993438 75 18409443661697689257
18393751 57 18200329796291527627
19246450 95 18122883375738757762
19304152 47 18334579096236703418
20691028 202 17846788420141698778
21033648 144 18413110541333869059
21049683 118 16377220521333012217
21716022 299 15544006735110914511
21859007 373 18339647720482014414
21927370 108 18050006898376983311
22956985 138 16816319775372906955
23569914 2 17341201088629126776
24771293 8 18268728143181177913
25019877 29 17058949933923863031
2838139 119 18339073766252694406
3418910 222 17616532200489869028
354706 109 18119224212966402500
376196 1 18049717413422603767
437795 171 18342170086303287388
437795 96 18410008801815757008
44249763 50 18129084771352462976
50677037 204 17765143261104136552
6036956 94 18334856151666219245

> <PUBCHEM_SHAPE_MULTIPOLES>
655.94
15.74
7.33
1.68
27.39
5.78
0.13
11.55
5.47
-8.26
-4.01
-1.75
-0.88
5.05

> <PUBCHEM_SHAPE_SELFOVERLAP>
1461.749

> <PUBCHEM_SHAPE_VOLUME>
353.1

> <PUBCHEM_COORDINATE_TYPE>
2
5
10

$$$$
