44370463
  -OEChem-10062121593D

 65 71  0     1  0  0  0  0  0999 V2000
    3.3079    1.5726    5.0606 Br  0  0  0  0  0  0  0  0  0  0  0  0
    2.5363   -0.1173   -1.6122 O   0  0  0  0  0  0  0  0  0  0  0  0
    2.7139    0.2268    1.2807 O   0  0  0  0  0  0  0  0  0  0  0  0
    5.0522   -0.5064   -0.1733 O   0  0  0  0  0  0  0  0  0  0  0  0
    2.6275   -3.2140    0.1536 O   0  0  0  0  0  0  0  0  0  0  0  0
    3.7872   -0.6817   -4.2281 O   0  0  0  0  0  0  0  0  0  0  0  0
   -3.8193    3.9673   -0.1066 O   0  0  0  0  0  0  0  0  0  0  0  0
   -6.0392   -0.0502    0.3742 O   0  0  0  0  0  0  0  0  0  0  0  0
    2.2575   -0.6658    3.3545 O   0  0  0  0  0  0  0  0  0  0  0  0
    0.4333    0.5082   -0.5874 N   0  0  0  0  0  0  0  0  0  0  0  0
   -0.9052   -1.9149   -0.2956 N   0  0  0  0  0  0  0  0  0  0  0  0
   -5.2669    2.1500    0.1754 N   0  0  0  0  0  0  0  0  0  0  0  0
    1.5159   -0.5474   -0.7025 C   0  0  2  0  0  0  0  0  0  0  0  0
    2.1339   -0.9195    0.6593 C   0  0  1  0  0  0  0  0  0  0  0  0
    3.2393   -1.9688    0.4821 C   0  0  2  0  0  0  0  0  0  0  0  0
    4.2264   -1.5771   -0.6267 C   0  0  1  0  0  0  0  0  0  0  0  0
    3.4873   -1.1483   -1.9041 C   0  0  2  0  0  0  0  0  0  0  0  0
   -0.9042    0.4758   -0.3915 C   0  0  0  0  0  0  0  0  0  0  0  0
   -1.7067    1.6637   -0.3222 C   0  0  0  0  0  0  0  0  0  0  0  0
    0.6515    1.8750   -0.6741 C   0  0  0  0  0  0  0  0  0  0  0  0
   -1.5774   -0.7427   -0.2448 C   0  0  0  0  0  0  0  0  0  0  0  0
   -0.5838    2.5908   -0.5227 C   0  0  0  0  0  0  0  0  0  0  0  0
   -2.9963   -0.6707   -0.0418 C   0  0  0  0  0  0  0  0  0  0  0  0
   -3.0838    1.7059   -0.1238 C   0  0  0  0  0  0  0  0  0  0  0  0
   -3.7518    0.4967    0.0213 C   0  0  0  0  0  0  0  0  0  0  0  0
    4.4324   -0.6046   -2.9698 C   0  0  0  0  0  0  0  0  0  0  0  0
   -3.1892   -2.1253    0.0445 C   0  0  0  0  0  0  0  0  0  0  0  0
    1.8701    2.5402   -0.8783 C   0  0  0  0  0  0  0  0  0  0  0  0
   -1.9411   -2.8181   -0.1088 C   0  0  0  0  0  0  0  0  0  0  0  0
   -0.5237    4.0039   -0.5876 C   0  0  0  0  0  0  0  0  0  0  0  0
   -4.0579    2.7789   -0.0250 C   0  0  0  0  0  0  0  0  0  0  0  0
   -5.1639    0.7771    0.2148 C   0  0  0  0  0  0  0  0  0  0  0  0
    1.8739    3.9344   -0.9348 C   0  0  0  0  0  0  0  0  0  0  0  0
    0.6966    4.6569   -0.7918 C   0  0  0  0  0  0  0  0  0  0  0  0
   -4.3465   -2.9159    0.2443 C   0  0  0  0  0  0  0  0  0  0  0  0
    2.7108    0.2257    2.6510 C   0  0  0  0  0  0  0  0  0  0  0  0
    6.1033   -0.9790    0.6556 C   0  0  0  0  0  0  0  0  0  0  0  0
   -1.8635   -4.2185   -0.0640 C   0  0  0  0  0  0  0  0  0  0  0  0
   -4.2578   -4.3115    0.2873 C   0  0  0  0  0  0  0  0  0  0  0  0
   -3.0345   -4.9508    0.1352 C   0  0  0  0  0  0  0  0  0  0  0  0
    3.3554    1.4987    3.1232 C   0  0  0  0  0  0  0  0  0  0  0  0
    1.0816   -1.3609   -1.2730 H   0  0  0  0  0  0  0  0  0  0  0  0
    1.3322   -1.3241    1.2893 H   0  0  0  0  0  0  0  0  0  0  0  0
    3.7535   -2.1138    1.4360 H   0  0  0  0  0  0  0  0  0  0  0  0
    4.8538   -2.4389   -0.8929 H   0  0  0  0  0  0  0  0  0  0  0  0
    2.9412   -2.0058   -2.3201 H   0  0  0  0  0  0  0  0  0  0  0  0
    5.3444   -1.2068   -3.0300 H   0  0  0  0  0  0  0  0  0  0  0  0
    4.6960    0.4413   -2.7818 H   0  0  0  0  0  0  0  0  0  0  0  0
    0.0558   -2.1807   -0.2550 H   0  0  0  0  0  0  0  0  0  0  0  0
    2.8212    2.0286   -0.9574 H   0  0  0  0  0  0  0  0  0  0  0  0
    3.3346   -3.8769    0.0754 H   0  0  0  0  0  0  0  0  0  0  0  0
   -1.4226    4.6024   -0.4799 H   0  0  0  0  0  0  0  0  0  0  0  0
   -6.1439    2.6475    0.2828 H   0  0  0  0  0  0  0  0  0  0  0  0
    2.8130    4.4613   -1.0834 H   0  0  0  0  0  0  0  0  0  0  0  0
    0.7215    5.7425   -0.8365 H   0  0  0  0  0  0  0  0  0  0  0  0
   -5.3201   -2.4523    0.3671 H   0  0  0  0  0  0  0  0  0  0  0  0
    6.7462   -0.1277    0.8978 H   0  0  0  0  0  0  0  0  0  0  0  0
    6.7125   -1.7228    0.1325 H   0  0  0  0  0  0  0  0  0  0  0  0
    5.7290   -1.3879    1.5969 H   0  0  0  0  0  0  0  0  0  0  0  0
   -0.9114   -4.7276   -0.1817 H   0  0  0  0  0  0  0  0  0  0  0  0
    4.4077   -0.3336   -4.8909 H   0  0  0  0  0  0  0  0  0  0  0  0
   -5.1582   -4.9002    0.4417 H   0  0  0  0  0  0  0  0  0  0  0  0
   -2.9866   -6.0360    0.1716 H   0  0  0  0  0  0  0  0  0  0  0  0
    2.8041    2.3677    2.7584 H   0  0  0  0  0  0  0  0  0  0  0  0
    4.4053    1.5309    2.8254 H   0  0  0  0  0  0  0  0  0  0  0  0
  1 41  1  0  0  0  0
  2 13  1  0  0  0  0
  2 17  1  0  0  0  0
  3 14  1  0  0  0  0
  3 36  1  0  0  0  0
  4 16  1  0  0  0  0
  4 37  1  0  0  0  0
  5 15  1  0  0  0  0
  5 51  1  0  0  0  0
  6 26  1  0  0  0  0
  6 61  1  0  0  0  0
  7 31  2  0  0  0  0
  8 32  2  0  0  0  0
  9 36  2  0  0  0  0
 10 13  1  0  0  0  0
 10 18  1  0  0  0  0
 10 20  1  0  0  0  0
 11 21  1  0  0  0  0
 11 29  1  0  0  0  0
 11 49  1  0  0  0  0
 12 31  1  0  0  0  0
 12 32  1  0  0  0  0
 12 53  1  0  0  0  0
 13 14  1  0  0  0  0
 13 42  1  0  0  0  0
 14 15  1  0  0  0  0
 14 43  1  0  0  0  0
 15 16  1  0  0  0  0
 15 44  1  0  0  0  0
 16 17  1  0  0  0  0
 16 45  1  0  0  0  0
 17 26  1  0  0  0  0
 17 46  1  0  0  0  0
 18 19  1  0  0  0  0
 18 21  2  0  0  0  0
 19 22  1  0  0  0  0
 19 24  2  0  0  0  0
 20 22  1  0  0  0  0
 20 28  2  0  0  0  0
 21 23  1  0  0  0  0
 22 30  2  0  0  0  0
 23 25  2  0  0  0  0
 23 27  1  0  0  0  0
 24 25  1  0  0  0  0
 24 31  1  0  0  0  0
 25 32  1  0  0  0  0
 26 47  1  0  0  0  0
 26 48  1  0  0  0  0
 27 29  1  0  0  0  0
 27 35  2  0  0  0  0
 28 33  1  0  0  0  0
 28 50  1  0  0  0  0
 29 38  2  0  0  0  0
 30 34  1  0  0  0  0
 30 52  1  0  0  0  0
 33 34  2  0  0  0  0
 33 54  1  0  0  0  0
 34 55  1  0  0  0  0
 35 39  1  0  0  0  0
 35 56  1  0  0  0  0
 36 41  1  0  0  0  0
 37 57  1  0  0  0  0
 37 58  1  0  0  0  0
 37 59  1  0  0  0  0
 38 40  1  0  0  0  0
 38 60  1  0  0  0  0
 39 40  2  0  0  0  0
 39 62  1  0  0  0  0
 40 63  1  0  0  0  0
 41 64  1  0  0  0  0
 41 65  1  0  0  0  0
M  END
> <PUBCHEM_COMPOUND_CID>
44370463

> <PUBCHEM_CONFORMER_RMSD>
1

> <PUBCHEM_CONFORMER_DIVERSEORDER>
1
4
18
30
20
29
32
12
25
24
17
36
10
6
31
33
26
13
2
3
16
34
23
7
21
35
11
15
27
14
28
9
5
8
19
22

> <PUBCHEM_MMFF94_PARTIAL_CHARGES>
51
1 -0.23
10 -0.04
11 -0.05
12 -0.49
13 0.54
14 0.28
15 0.28
16 0.28
17 0.28
18 -0.05
19 -0.01
2 -0.56
20 -0.15
21 -0.05
23 -0.01
24 0.09
25 0.09
26 0.28
28 -0.15
29 -0.15
3 -0.43
30 -0.15
31 0.54
32 0.54
33 -0.15
34 -0.15
35 -0.15
36 0.66
37 0.28
38 -0.15
39 -0.15
4 -0.56
40 -0.15
41 0.29
49 0.27
5 -0.68
50 0.15
51 0.4
52 0.15
53 0.37
54 0.15
55 0.15
56 0.15
6 -0.68
60 0.15
61 0.4
62 0.15
63 0.15
7 -0.57
8 -0.57
9 -0.57

> <PUBCHEM_EFFECTIVE_ROTOR_COUNT>
7.4

> <PUBCHEM_PHARMACOPHORE_FEATURES>
21
1 1 hydrophobe
1 10 cation
1 11 cation
1 11 donor
1 12 donor
1 2 acceptor
1 4 acceptor
1 5 acceptor
1 5 donor
1 6 acceptor
1 6 donor
1 7 acceptor
1 8 acceptor
1 9 acceptor
5 10 18 19 20 22 rings
5 11 21 23 27 29 rings
5 12 24 25 31 32 rings
6 18 19 21 23 24 25 rings
6 2 13 14 15 16 17 rings
6 20 22 28 30 33 34 rings
6 27 29 35 38 39 40 rings

> <PUBCHEM_HEAVY_ATOM_COUNT>
41

> <PUBCHEM_ATOM_DEF_STEREO_COUNT>
0

> <PUBCHEM_ATOM_UDEF_STEREO_COUNT>
5

> <PUBCHEM_BOND_DEF_STEREO_COUNT>
0

> <PUBCHEM_BOND_UDEF_STEREO_COUNT>
0

> <PUBCHEM_ISOTOPIC_ATOM_COUNT>
0

> <PUBCHEM_COMPONENT_COUNT>
1

> <PUBCHEM_CACTVS_TAUTO_COUNT>
18

> <PUBCHEM_CONFORMER_ID>
02A50A1F00000001

> <PUBCHEM_MMFF94_ENERGY>
161.3515

> <PUBCHEM_FEATURE_SELFOVERLAP>
107.05

> <PUBCHEM_SHAPE_FINGERPRINT>
10940486 97 18335426780672142004
1100329 8 18409173220908310325
11578080 2 17631450227736022923
11763715 3 17388223876559574688
12128747 34 17346318154966166904
12788726 201 18042695996191182936
13140716 1 18410856606968923613
13636023 51 18129929136158041842
140371 6 18193818543949368847
14178342 30 18265596827294243563
14705955 166 17774152388646505897
14790565 3 18120949299850267341
15001296 14 18262527008114603901
15297060 5 17979921501385677480
15320467 1 18409172112533006583
15324884 4 18060418036086851230
15439362 3 15956670375644754204
17909252 39 17838085910488853260
18681886 176 18115877308503544580
19319366 153 17531256006336411610
20028762 73 18343584028439763239
20511986 3 17530685381408106324
21033648 29 18200015249723233673
21421861 104 17973443497208232051
22311459 1 18409456856639011055
23559900 14 18343309201243881157
24941158 1 16845300504876892834
3178227 256 18263947470697347057
3882209 13 17836615867875179327
4394409 98 18115578233093753389
5265222 85 17761778356497560382
563151 74 16557884840981915256
613672 6 17979053197044287951
6823239 73 18341055206738798082

> <PUBCHEM_SHAPE_MULTIPOLES>
787.81
10.97
6.03
3
2.81
0.41
-3
-4.23
-1.53
5.83
0.94
-7.76
0.83
1.87

> <PUBCHEM_SHAPE_SELFOVERLAP>
1765.088

> <PUBCHEM_SHAPE_VOLUME>
425.3

> <PUBCHEM_COORDINATE_TYPE>
2
5
10

$$$$
