11287153
  -OEChem-10052120443D

 21 23  0     0  0  0  0  0  0999 V2000
    4.2392    1.5686    0.0000 Cl  0  0  0  0  0  0  0  0  0  0  0  0
   -0.5838   -1.7275   -0.0007 N   0  0  0  0  0  0  0  0  0  0  0  0
   -3.7396    0.1821    0.0005 N   0  0  0  0  0  0  0  0  0  0  0  0
    0.4510    0.2487   -0.0003 C   0  0  0  0  0  0  0  0  0  0  0  0
   -0.9626    0.4708   -0.0002 C   0  0  0  0  0  0  0  0  0  0  0  0
    0.6557   -1.1317   -0.0001 C   0  0  0  0  0  0  0  0  0  0  0  0
   -1.5786   -0.7802   -0.0002 C   0  0  0  0  0  0  0  0  0  0  0  0
    1.5777    1.0977   -0.0002 C   0  0  0  0  0  0  0  0  0  0  0  0
    1.9314   -1.7076    0.0003 C   0  0  0  0  0  0  0  0  0  0  0  0
   -1.7751    1.6154   -0.0001 C   0  0  0  0  0  0  0  0  0  0  0  0
   -2.9601   -0.9237    0.0003 C   0  0  0  0  0  0  0  0  0  0  0  0
    2.8596    0.5364    0.0000 C   0  0  0  0  0  0  0  0  0  0  0  0
    3.0315   -0.8459    0.0006 C   0  0  0  0  0  0  0  0  0  0  0  0
   -3.1462    1.3971    0.0001 C   0  0  0  0  0  0  0  0  0  0  0  0
   -0.7407   -2.7259   -0.0009 H   0  0  0  0  0  0  0  0  0  0  0  0
    1.4441    2.1765   -0.0003 H   0  0  0  0  0  0  0  0  0  0  0  0
    2.0659   -2.7842    0.0004 H   0  0  0  0  0  0  0  0  0  0  0  0
   -1.3635    2.6182   -0.0001 H   0  0  0  0  0  0  0  0  0  0  0  0
   -3.4606   -1.8831    0.0004 H   0  0  0  0  0  0  0  0  0  0  0  0
    4.0304   -1.2770    0.0009 H   0  0  0  0  0  0  0  0  0  0  0  0
   -3.8329    2.2384    0.0003 H   0  0  0  0  0  0  0  0  0  0  0  0
  1 12  1  0  0  0  0
  2  6  1  0  0  0  0
  2  7  1  0  0  0  0
  2 15  1  0  0  0  0
  3 11  2  0  0  0  0
  3 14  1  0  0  0  0
  4  5  1  0  0  0  0
  4  6  2  0  0  0  0
  4  8  1  0  0  0  0
  5  7  2  0  0  0  0
  5 10  1  0  0  0  0
  6  9  1  0  0  0  0
  7 11  1  0  0  0  0
  8 12  2  0  0  0  0
  8 16  1  0  0  0  0
  9 13  2  0  0  0  0
  9 17  1  0  0  0  0
 10 14  2  0  0  0  0
 10 18  1  0  0  0  0
 11 19  1  0  0  0  0
 12 13  1  0  0  0  0
 13 20  1  0  0  0  0
 14 21  1  0  0  0  0
M  END
> <PUBCHEM_COMPOUND_CID>
11287153

> <PUBCHEM_CONFORMER_RMSD>
0.4

> <PUBCHEM_CONFORMER_DIVERSEORDER>
1

> <PUBCHEM_MMFF94_PARTIAL_CHARGES>
19
1 -0.18
10 -0.15
11 0.16
12 0.18
13 -0.15
14 0.16
15 0.27
16 0.15
17 0.15
18 0.15
19 0.15
2 0.03
20 0.15
21 0.15
3 -0.62
6 -0.15
7 -0.15
8 -0.15
9 -0.15

> <PUBCHEM_EFFECTIVE_ROTOR_COUNT>
0

> <PUBCHEM_PHARMACOPHORE_FEATURES>
6
1 2 cation
1 2 donor
1 3 acceptor
5 2 4 5 6 7 rings
6 3 5 7 10 11 14 rings
6 4 6 8 9 12 13 rings

> <PUBCHEM_HEAVY_ATOM_COUNT>
14

> <PUBCHEM_ATOM_DEF_STEREO_COUNT>
0

> <PUBCHEM_ATOM_UDEF_STEREO_COUNT>
0

> <PUBCHEM_BOND_DEF_STEREO_COUNT>
0

> <PUBCHEM_BOND_UDEF_STEREO_COUNT>
0

> <PUBCHEM_ISOTOPIC_ATOM_COUNT>
0

> <PUBCHEM_COMPONENT_COUNT>
1

> <PUBCHEM_CACTVS_TAUTO_COUNT>
2

> <PUBCHEM_CONFORMER_ID>
00AC3A7100000001

> <PUBCHEM_MMFF94_ENERGY>
29.0876

> <PUBCHEM_FEATURE_SELFOVERLAP>
30.632

> <PUBCHEM_SHAPE_FINGERPRINT>
10608611 8 18410008797530994940
10967382 1 18410575080373399364
10980938 120 18410575067847226170
11132069 177 18409443691498592881
11471102 20 18411132519878511820
11543360 7 15626216974574375840
12346645 44 18410011061305521712
12932764 1 17459468857830468843
13380535 21 18411146822193551322
13380535 76 18409448115636700106
14144814 61 18409730642558417616
14325111 11 18410855438669311969
14897335 6 18411134753599102740
15196674 1 18410575076104831813
15219456 202 18410577266506478279
15442244 35 18122906426078323458
15536298 74 18342458119362385910
15775835 57 18341617026846944600
16945 1 18338517559355326630
18186145 218 18270404879988889916
193761 8 17257934221893715683
19591789 44 15451447737154522267
200 152 18202271516513298645
20510252 161 18343024397620257769
20645477 70 18342454790314702767
21267235 1 18411146804961233418
21501502 16 18411415085819236963
2334 1 18410573967971588449
23402539 116 18340477980013417879
23402655 69 18343011160905597845
23463225 33 18335699391036845610
23559900 14 18271523079747461878
2748010 2 18337956692466208399
474 4 17097217362365364836
4990 188 18060150833993164980
5104073 3 18409731742101649283
528886 8 18411132532805657194
53812653 166 18343016726961660768
57096353 35 18340764944000531045
69090 78 18343014501968128247
7364860 26 18342176610110664238
9709674 26 18411423920704563198

> <PUBCHEM_SHAPE_MULTIPOLES>
280.02
6.47
1.91
0.61
1.15
0.07
0
-2.29
0
0.37
0
0.04
-0.01
0

> <PUBCHEM_SHAPE_SELFOVERLAP>
625.495

> <PUBCHEM_SHAPE_VOLUME>
151

> <PUBCHEM_COORDINATE_TYPE>
2
5
10

$$$$
