52936621
  -OEChem-10052115143D

 66 70  0     1  0  0  0  0  0999 V2000
    1.0535   -0.9941   -0.1386 O   0  0  0  0  0  0  0  0  0  0  0  0
    2.5700    3.2735   -1.9153 O   0  0  0  0  0  0  0  0  0  0  0  0
   -4.8382    1.0411    1.0427 N   0  0  3  0  0  0  0  0  0  0  0  0
   -7.5487   -0.9629   -0.5959 N   0  0  0  0  0  0  0  0  0  0  0  0
    1.3817    1.2976   -0.3625 N   0  0  0  0  0  0  0  0  0  0  0  0
    4.6419    2.2838   -1.7275 N   0  0  0  0  0  0  0  0  0  0  0  0
    7.1433   -0.4212    0.2064 N   0  0  0  0  0  0  0  0  0  0  0  0
    6.2288   -3.0378    0.6345 N   0  0  0  0  0  0  0  0  0  0  0  0
    9.3213   -1.1165    0.8952 N   0  0  0  0  0  0  0  0  0  0  0  0
   -5.9001    0.0324    0.9334 C   0  0  2  0  0  0  0  0  0  0  0  0
   -6.3919   -0.0840   -0.5086 C   0  0  0  0  0  0  0  0  0  0  0  0
   -6.9955    0.5790    1.8608 C   0  0  0  0  0  0  0  0  0  0  0  0
   -6.8422    2.0863    1.7435 C   0  0  0  0  0  0  0  0  0  0  0  0
   -5.3308    2.2777    1.6547 C   0  0  0  0  0  0  0  0  0  0  0  0
   -8.0623   -1.0760   -1.9607 C   0  0  0  0  0  0  0  0  0  0  0  0
   -7.2397   -2.3341   -0.1916 C   0  0  0  0  0  0  0  0  0  0  0  0
   -8.9687   -2.2957   -1.8842 C   0  0  0  0  0  0  0  0  0  0  0  0
   -8.4303   -3.1208   -0.7194 C   0  0  0  0  0  0  0  0  0  0  0  0
   -3.5036    0.8248    0.7566 C   0  0  0  0  0  0  0  0  0  0  0  0
   -3.1005   -0.3763    0.1730 C   0  0  0  0  0  0  0  0  0  0  0  0
   -2.5596    1.8082    1.0522 C   0  0  0  0  0  0  0  0  0  0  0  0
   -1.7531   -0.5939   -0.1150 C   0  0  0  0  0  0  0  0  0  0  0  0
   -1.2123    1.5904    0.7644 C   0  0  0  0  0  0  0  0  0  0  0  0
   -0.8090    0.3895    0.1806 C   0  0  0  0  0  0  0  0  0  0  0  0
    0.5953    0.1628   -0.1208 C   0  0  0  0  0  0  0  0  0  0  0  0
    2.7161    1.2695   -0.6404 C   0  0  0  0  0  0  0  0  0  0  0  0
    3.5263    0.3009   -0.1876 C   0  0  0  0  0  0  0  0  0  0  0  0
    3.2812    2.3695   -1.4827 C   0  0  0  0  0  0  0  0  0  0  0  0
    4.9498    0.2848   -0.4897 C   0  0  0  0  0  0  0  0  0  0  0  0
    5.4447    1.2779   -1.2492 C   0  0  0  0  0  0  0  0  0  0  0  0
    5.8607   -0.7734   -0.0113 C   0  0  0  0  0  0  0  0  0  0  0  0
    5.4115   -2.0585    0.1989 C   0  0  0  0  0  0  0  0  0  0  0  0
    7.9606   -1.4005    0.6421 C   0  0  0  0  0  0  0  0  0  0  0  0
    7.5114   -2.6857    0.8523 C   0  0  0  0  0  0  0  0  0  0  0  0
    9.8888    0.1816    0.7098 C   0  0  0  0  0  0  0  0  0  0  0  0
   -5.5591   -0.9303    1.3308 H   0  0  0  0  0  0  0  0  0  0  0  0
   -5.5890   -0.4320   -1.1691 H   0  0  0  0  0  0  0  0  0  0  0  0
   -6.6702    0.9095   -0.8843 H   0  0  0  0  0  0  0  0  0  0  0  0
   -6.7781    0.2781    2.8941 H   0  0  0  0  0  0  0  0  0  0  0  0
   -8.0105    0.2439    1.6326 H   0  0  0  0  0  0  0  0  0  0  0  0
   -7.3253    2.4483    0.8285 H   0  0  0  0  0  0  0  0  0  0  0  0
   -7.2793    2.6235    2.5901 H   0  0  0  0  0  0  0  0  0  0  0  0
   -5.0956    3.1635    1.0549 H   0  0  0  0  0  0  0  0  0  0  0  0
   -4.9132    2.3959    2.6616 H   0  0  0  0  0  0  0  0  0  0  0  0
   -7.2580   -1.2581   -2.6851 H   0  0  0  0  0  0  0  0  0  0  0  0
   -8.6142   -0.1827   -2.2696 H   0  0  0  0  0  0  0  0  0  0  0  0
   -7.1578   -2.4541    0.8929 H   0  0  0  0  0  0  0  0  0  0  0  0
   -6.3165   -2.7006   -0.6588 H   0  0  0  0  0  0  0  0  0  0  0  0
   -8.9590   -2.8622   -2.8209 H   0  0  0  0  0  0  0  0  0  0  0  0
  -10.0045   -1.9994   -1.6811 H   0  0  0  0  0  0  0  0  0  0  0  0
   -8.1382   -4.1271   -1.0362 H   0  0  0  0  0  0  0  0  0  0  0  0
   -9.2037   -3.2219    0.0512 H   0  0  0  0  0  0  0  0  0  0  0  0
   -3.7932   -1.1767   -0.0641 H   0  0  0  0  0  0  0  0  0  0  0  0
   -2.8277    2.7542    1.5129 H   0  0  0  0  0  0  0  0  0  0  0  0
   -1.4589   -1.5355   -0.5714 H   0  0  0  0  0  0  0  0  0  0  0  0
   -0.5040    2.3693    1.0328 H   0  0  0  0  0  0  0  0  0  0  0  0
    0.9097    2.1778   -0.5534 H   0  0  0  0  0  0  0  0  0  0  0  0
    3.1770   -0.4671    0.4921 H   0  0  0  0  0  0  0  0  0  0  0  0
    5.0811    3.0024   -2.2957 H   0  0  0  0  0  0  0  0  0  0  0  0
    6.4848    1.3591   -1.5431 H   0  0  0  0  0  0  0  0  0  0  0  0
    4.3910   -2.3737    0.0160 H   0  0  0  0  0  0  0  0  0  0  0  0
    8.1584   -3.4822    1.2018 H   0  0  0  0  0  0  0  0  0  0  0  0
    9.8496   -1.8068    1.4178 H   0  0  0  0  0  0  0  0  0  0  0  0
    9.4061    0.9207    1.3574 H   0  0  0  0  0  0  0  0  0  0  0  0
   10.9540    0.1623    0.9604 H   0  0  0  0  0  0  0  0  0  0  0  0
    9.7975    0.5082   -0.3312 H   0  0  0  0  0  0  0  0  0  0  0  0
  1 25  2  0  0  0  0
  2 28  2  0  0  0  0
  3 10  1  0  0  0  0
  3 14  1  0  0  0  0
  3 19  1  0  0  0  0
  4 11  1  0  0  0  0
  4 15  1  0  0  0  0
  4 16  1  0  0  0  0
  5 25  1  0  0  0  0
  5 26  1  0  0  0  0
  5 57  1  0  0  0  0
  6 28  1  0  0  0  0
  6 30  1  0  0  0  0
  6 59  1  0  0  0  0
  7 31  1  0  0  0  0
  7 33  2  0  0  0  0
  8 32  1  0  0  0  0
  8 34  2  0  0  0  0
  9 33  1  0  0  0  0
  9 35  1  0  0  0  0
  9 63  1  0  0  0  0
 10 11  1  0  0  0  0
 10 12  1  0  0  0  0
 10 36  1  0  0  0  0
 11 37  1  0  0  0  0
 11 38  1  0  0  0  0
 12 13  1  0  0  0  0
 12 39  1  0  0  0  0
 12 40  1  0  0  0  0
 13 14  1  0  0  0  0
 13 41  1  0  0  0  0
 13 42  1  0  0  0  0
 14 43  1  0  0  0  0
 14 44  1  0  0  0  0
 15 17  1  0  0  0  0
 15 45  1  0  0  0  0
 15 46  1  0  0  0  0
 16 18  1  0  0  0  0
 16 47  1  0  0  0  0
 16 48  1  0  0  0  0
 17 18  1  0  0  0  0
 17 49  1  0  0  0  0
 17 50  1  0  0  0  0
 18 51  1  0  0  0  0
 18 52  1  0  0  0  0
 19 20  2  0  0  0  0
 19 21  1  0  0  0  0
 20 22  1  0  0  0  0
 20 53  1  0  0  0  0
 21 23  2  0  0  0  0
 21 54  1  0  0  0  0
 22 24  2  0  0  0  0
 22 55  1  0  0  0  0
 23 24  1  0  0  0  0
 23 56  1  0  0  0  0
 24 25  1  0  0  0  0
 26 27  2  0  0  0  0
 26 28  1  0  0  0  0
 27 29  1  0  0  0  0
 27 58  1  0  0  0  0
 29 30  2  0  0  0  0
 29 31  1  0  0  0  0
 30 60  1  0  0  0  0
 31 32  2  0  0  0  0
 32 61  1  0  0  0  0
 33 34  1  0  0  0  0
 34 62  1  0  0  0  0
 35 64  1  0  0  0  0
 35 65  1  0  0  0  0
 35 66  1  0  0  0  0
M  END
> <PUBCHEM_COMPOUND_CID>
52936621

> <PUBCHEM_CONFORMER_RMSD>
1

> <PUBCHEM_CONFORMER_DIVERSEORDER>
3
46
42
55
11
47
36
28
58
37
68
21
27
51
10
49
74
33
20
53
70
40
50
38
18
8
60
64
54
63
73
39
15
61
43
56
22
34
45
44
66
32
31
25
9
35
41
19
17
2
52
24
48
14
29
23
7
67
65
72
57
71
5
30
16
13
12
1
4
26
6
62
69
59

> <PUBCHEM_MMFF94_PARTIAL_CHARGES>
42
1 -0.57
10 0.37
11 0.27
14 0.37
15 0.27
16 0.27
19 0.1
2 -0.57
20 -0.15
21 -0.15
22 -0.15
23 -0.15
24 0.09
25 0.54
26 0.12
27 -0.15
28 0.62
29 -0.03
3 -0.84
30 -0.04
31 0.34
32 0.16
33 0.41
34 0.16
35 0.37
4 -0.81
5 -0.54
53 0.15
54 0.15
55 0.15
56 0.15
57 0.37
58 0.15
59 0.37
6 -0.54
60 0.15
61 0.15
62 0.15
63 0.4
7 -0.62
8 -0.62
9 -0.87

> <PUBCHEM_EFFECTIVE_ROTOR_COUNT>
10

> <PUBCHEM_PHARMACOPHORE_FEATURES>
14
1 1 acceptor
1 2 acceptor
1 3 cation
1 4 cation
1 5 donor
1 6 donor
1 8 acceptor
1 9 donor
3 7 9 33 cation
5 3 10 12 13 14 rings
5 4 15 16 17 18 rings
6 19 20 21 22 23 24 rings
6 6 26 27 28 29 30 rings
6 7 8 31 32 33 34 rings

> <PUBCHEM_HEAVY_ATOM_COUNT>
35

> <PUBCHEM_ATOM_DEF_STEREO_COUNT>
1

> <PUBCHEM_ATOM_UDEF_STEREO_COUNT>
0

> <PUBCHEM_BOND_DEF_STEREO_COUNT>
0

> <PUBCHEM_BOND_UDEF_STEREO_COUNT>
0

> <PUBCHEM_ISOTOPIC_ATOM_COUNT>
0

> <PUBCHEM_COMPONENT_COUNT>
1

> <PUBCHEM_CACTVS_TAUTO_COUNT>
15

> <PUBCHEM_CONFORMER_ID>
0327BFAD00000003

> <PUBCHEM_MMFF94_ENERGY>
121.506

> <PUBCHEM_FEATURE_SELFOVERLAP>
71.048

> <PUBCHEM_SHAPE_FINGERPRINT>
10 15 14764343813048837020
10162869 55 18334010614702975670
10554248 39 17821736073593964917
11135926 11 17749113262514206147
11386260 185 17095805515940581876
11455722 242 18202562904195770863
12013929 27 18042687385599978223
12089408 11 18343023272924115594
12120059 9 16702019721973674037
12539747 91 16732979825990875156
12592606 108 18408039607034943374
12645989 146 18187087252048774901
13008946 170 18190463947127575756
13673619 4 16732990799759124460
13782708 43 17417815084679597553
13947947 74 9583220757610748470
14251764 18 18411142416232241544
14359421 15 17915163837152580831
15461852 350 17775008994092812732
1577012 14 18340218444146977421
1754908 1 16415481545160909723
1754911 235 9439399125710521994
1768 124 18342176614622221286
20165401 70 18339079268881773458
21130935 74 17631740348540455006
21315759 40 18341618113869394017
22149856 69 16773257123139377103
23081809 10 18340497728890703761
23522609 53 18125475027229034737
23569917 315 18411986870648065295
24771293 8 18341335500678877018
249057 25 18340499914707492457
2747138 104 15410624678939374977
3418910 222 15698008456749391304
3504750 166 18196658397805673297
397830 11 15482662520623051345
4112364 45 15554152762704216672
4339292 15 17203599412136623943
437795 160 17917705816379402515
44389302 135 18127126382620910106
4516262 110 17897172540485881844
4616759 239 16845300385324912331
6201320 221 15720217389762102242
99344 41 18341334388214035403
9962374 69 18261390079158830688

> <PUBCHEM_SHAPE_MULTIPOLES>
673.68
33.77
3.19
1.62
8.36
0.78
0.39
22.87
-2.09
-1.66
0.39
-1.7
-0.73
-7.3

> <PUBCHEM_SHAPE_SELFOVERLAP>
1460.291

> <PUBCHEM_SHAPE_VOLUME>
368.4

> <PUBCHEM_COORDINATE_TYPE>
2
5
10

$$$$
