49830865
  -OEChem-10052115183D

 28 31  0     0  0  0  0  0  0999 V2000
   -4.7761    0.2590   -0.1908 N   0  0  0  0  0  0  0  0  0  0  0  0
    3.8136   -1.6068   -0.3693 N   0  0  0  0  0  0  0  0  0  0  0  0
   -2.7939    1.6015   -0.4585 N   0  0  0  0  0  0  0  0  0  0  0  0
    5.0614   -1.1391   -0.1990 N   0  0  0  0  0  0  0  0  0  0  0  0
    0.7177    0.4035    0.0445 C   0  0  0  0  0  0  0  0  0  0  0  0
   -0.7285    0.3739   -0.0190 C   0  0  0  0  0  0  0  0  0  0  0  0
   -2.8272   -0.7640    0.1867 C   0  0  0  0  0  0  0  0  0  0  0  0
    2.8320   -0.6758   -0.1607 C   0  0  0  0  0  0  0  0  0  0  0  0
    1.4401   -0.7610   -0.2354 C   0  0  0  0  0  0  0  0  0  0  0  0
    3.5032    0.4951    0.1732 C   0  0  0  0  0  0  0  0  0  0  0  0
   -1.4258   -0.7986    0.2668 C   0  0  0  0  0  0  0  0  0  0  0  0
   -3.4187    0.4435   -0.1731 C   0  0  0  0  0  0  0  0  0  0  0  0
    1.3663    1.5928    0.3823 C   0  0  0  0  0  0  0  0  0  0  0  0
    2.7637    1.6567    0.4517 C   0  0  0  0  0  0  0  0  0  0  0  0
   -1.4468    1.5102   -0.3662 C   0  0  0  0  0  0  0  0  0  0  0  0
   -3.8810   -1.6942    0.3880 C   0  0  0  0  0  0  0  0  0  0  0  0
    4.8685    0.1399    0.1309 C   0  0  0  0  0  0  0  0  0  0  0  0
   -5.0683   -1.0367    0.1481 C   0  0  0  0  0  0  0  0  0  0  0  0
    0.9775   -1.6970   -0.5284 H   0  0  0  0  0  0  0  0  0  0  0  0
   -0.9406   -1.7197    0.5713 H   0  0  0  0  0  0  0  0  0  0  0  0
    0.8218    2.4998    0.6340 H   0  0  0  0  0  0  0  0  0  0  0  0
    3.2574    2.5851    0.7223 H   0  0  0  0  0  0  0  0  0  0  0  0
   -0.9577    2.4439   -0.6323 H   0  0  0  0  0  0  0  0  0  0  0  0
   -3.7869   -2.7321    0.6764 H   0  0  0  0  0  0  0  0  0  0  0  0
   -5.4569    0.9699   -0.4194 H   0  0  0  0  0  0  0  0  0  0  0  0
    3.6989   -2.5784   -0.6298 H   0  0  0  0  0  0  0  0  0  0  0  0
   -6.0939   -1.3756    0.1889 H   0  0  0  0  0  0  0  0  0  0  0  0
    5.7304    0.7619    0.3273 H   0  0  0  0  0  0  0  0  0  0  0  0
  1 12  1  0  0  0  0
  1 18  1  0  0  0  0
  1 25  1  0  0  0  0
  2  4  1  0  0  0  0
  2  8  1  0  0  0  0
  2 26  1  0  0  0  0
  3 12  2  0  0  0  0
  3 15  1  0  0  0  0
  4 17  2  0  0  0  0
  5  6  1  0  0  0  0
  5  9  2  0  0  0  0
  5 13  1  0  0  0  0
  6 11  1  0  0  0  0
  6 15  2  0  0  0  0
  7 11  2  0  0  0  0
  7 12  1  0  0  0  0
  7 16  1  0  0  0  0
  8  9  1  0  0  0  0
  8 10  2  0  0  0  0
  9 19  1  0  0  0  0
 10 14  1  0  0  0  0
 10 17  1  0  0  0  0
 11 20  1  0  0  0  0
 13 14  2  0  0  0  0
 13 21  1  0  0  0  0
 14 22  1  0  0  0  0
 15 23  1  0  0  0  0
 16 18  2  0  0  0  0
 16 24  1  0  0  0  0
 17 28  1  0  0  0  0
 18 27  1  0  0  0  0
M  END
> <PUBCHEM_COMPOUND_CID>
49830865

> <PUBCHEM_CONFORMER_RMSD>
0.6

> <PUBCHEM_CONFORMER_DIVERSEORDER>
2
1

> <PUBCHEM_MMFF94_PARTIAL_CHARGES>
24
1 0.03
11 -0.15
12 0.11
13 -0.15
14 -0.15
15 0.16
16 -0.15
17 0.14
18 -0.3
19 0.15
2 0.3
20 0.15
21 0.15
22 0.15
23 0.15
24 0.15
25 0.27
26 0.27
27 0.15
28 0.15
3 -0.57
4 -0.71
8 -0.15
9 -0.15

> <PUBCHEM_EFFECTIVE_ROTOR_COUNT>
1

> <PUBCHEM_PHARMACOPHORE_FEATURES>
8
1 1 donor
1 2 donor
1 4 acceptor
3 1 3 12 cation
5 1 7 12 16 18 rings
5 2 4 8 10 17 rings
6 3 6 7 11 12 15 rings
6 5 8 9 10 13 14 rings

> <PUBCHEM_HEAVY_ATOM_COUNT>
18

> <PUBCHEM_ATOM_DEF_STEREO_COUNT>
0

> <PUBCHEM_ATOM_UDEF_STEREO_COUNT>
0

> <PUBCHEM_BOND_DEF_STEREO_COUNT>
0

> <PUBCHEM_BOND_UDEF_STEREO_COUNT>
0

> <PUBCHEM_ISOTOPIC_ATOM_COUNT>
0

> <PUBCHEM_COMPONENT_COUNT>
1

> <PUBCHEM_CACTVS_TAUTO_COUNT>
11

> <PUBCHEM_CONFORMER_ID>
02F85BD100000002

> <PUBCHEM_MMFF94_ENERGY>
41.9387

> <PUBCHEM_FEATURE_SELFOVERLAP>
40.8

> <PUBCHEM_SHAPE_FINGERPRINT>
10 15 18340473583101329680
11128504 68 16588032328818577438
11471102 20 18342455958935852680
11806522 49 18408887343252530492
12032990 46 18410575093258528633
12107183 9 17764031263668464299
12403259 226 18410849971181660665
12507560 40 18342451560625935304
12596602 18 15697994171445706482
12916754 54 18411703209669241473
13167823 11 18411980277782685447
13288520 33 18410014316616386583
13675066 3 18131624591303642088
14115302 16 17604158115482804078
14252887 29 17561370552401206374
14341114 176 18412832394930497464
14386348 63 18410576192770078459
14866123 147 17191515507841370154
15196674 1 18410575097606197961
15352361 1 18410575088958052705
15536298 74 18412543249147477417
15961568 22 17386286631439973004
17804303 29 18410014342634194621
17834074 16 18410573993752058683
1813 80 17385439951086929453
18186145 218 17676759955123388917
19141452 34 18271246118712905119
1986462 14 18333732390388578717
200 152 17917709106608999193
20261772 1 17988922305518199318
20374829 77 18333446543124578651
20645477 70 18343303652410138542
21033648 29 17274522249005947568
21065198 57 18412544336080249337
21065201 7 18040988540442831249
21267235 1 18410864260521633938
21682296 61 17845664625127988230
221490 88 18336833103468035856
2215653 11 18412257320748435111
2297311 6 18410584971683205780
23175994 123 17632297869401720849
23402539 116 18334570252904023119
23557571 272 18261111837775939029
23559900 14 18408880767336145864
239999 70 18342179964754338166
26918003 58 18273495676046831019
2871803 45 18260543428897757691
3004659 81 18114465561913177698
3268164 11 16950554472381549919
335352 9 18409448068919541933
351380 180 18410854373596595843
42 15 18410857667746626709
4214541 1 18410575059183691833
465052 167 18272940456823961854
474 4 15720534224824985924
4921388 177 16298680468097258011
5104073 3 18413387622580233160
542803 24 13839981106037748119
59755656 215 18187079534351421379
69090 78 18342735251895357055
7364860 26 18265335199625437340
7495541 125 18411701015077966800
77779 3 18410575093290164137
8809292 202 18334298694732635235
9709674 26 18262801911807195203

> <PUBCHEM_SHAPE_MULTIPOLES>
350.51
10.87
1.73
0.67
0.22
0.18
-0.02
-3.58
-0.02
-0.08
0
0.01
0.03
0.78

> <PUBCHEM_SHAPE_SELFOVERLAP>
809.169

> <PUBCHEM_SHAPE_VOLUME>
180.2

> <PUBCHEM_COORDINATE_TYPE>
2
5
10

$$$$
