49830816
  -OEChem-10062121563D

 44 47  0     0  0  0  0  0  0999 V2000
    1.6447   -2.0804    0.1865 S   0  0  0  0  0  0  0  0  0  0  0  0
   -4.6865   -0.7462   -2.5874 F   0  0  0  0  0  0  0  0  0  0  0  0
    6.7757   -1.4957    0.0444 O   0  0  0  0  0  0  0  0  0  0  0  0
   -6.0438    0.0216   -0.0315 N   0  0  0  0  0  0  0  0  0  0  0  0
    1.5302    2.2896   -0.7892 N   0  0  0  0  0  0  0  0  0  0  0  0
   -0.8310    2.1877   -0.7706 N   0  0  0  0  0  0  0  0  0  0  0  0
    7.6462    0.5127    0.8260 N   0  0  0  0  0  0  0  0  0  0  0  0
   -0.5481   -0.7923   -0.1049 C   0  0  0  0  0  0  0  0  0  0  0  0
   -1.9705   -0.5964   -0.1499 C   0  0  0  0  0  0  0  0  0  0  0  0
   -4.0490   -0.0456    0.9655 C   0  0  0  0  0  0  0  0  0  0  0  0
    0.4889    0.1762   -0.3192 C   0  0  0  0  0  0  0  0  0  0  0  0
   -4.7071   -0.2221   -0.2536 C   0  0  0  0  0  0  0  0  0  0  0  0
   -2.6541   -0.2367    1.0172 C   0  0  0  0  0  0  0  0  0  0  0  0
    1.7548   -0.4016   -0.1881 C   0  0  0  0  0  0  0  0  0  0  0  0
   -2.6534   -0.7659   -1.3529 C   0  0  0  0  0  0  0  0  0  0  0  0
   -5.0370    0.3122    1.9253 C   0  0  0  0  0  0  0  0  0  0  0  0
   -6.2528    0.3457    1.2821 C   0  0  0  0  0  0  0  0  0  0  0  0
   -4.0370   -0.5817   -1.4283 C   0  0  0  0  0  0  0  0  0  0  0  0
   -0.0596   -2.0463    0.1759 C   0  0  0  0  0  0  0  0  0  0  0  0
    0.4144    1.5445   -0.6247 C   0  0  0  0  0  0  0  0  0  0  0  0
    2.9204    0.3556   -0.3552 C   0  0  0  0  0  0  0  0  0  0  0  0
   -7.6022    0.6557    1.7894 C   0  0  0  0  0  0  0  0  0  0  0  0
    2.7308    1.6933   -0.6542 C   0  0  0  0  0  0  0  0  0  0  0  0
    4.2345   -0.2375   -0.2154 C   0  0  0  0  0  0  0  0  0  0  0  0
    5.3416    0.4021    0.2352 C   0  0  0  0  0  0  0  0  0  0  0  0
    6.6442   -0.3144    0.3475 C   0  0  0  0  0  0  0  0  0  0  0  0
    9.0061    0.0660    1.0302 C   0  0  0  0  0  0  0  0  0  0  0  0
   -2.1247   -0.1025    1.9574 H   0  0  0  0  0  0  0  0  0  0  0  0
   -2.1180   -1.0447   -2.2586 H   0  0  0  0  0  0  0  0  0  0  0  0
   -4.8727    0.5224    2.9736 H   0  0  0  0  0  0  0  0  0  0  0  0
   -6.7639   -0.0316   -0.7389 H   0  0  0  0  0  0  0  0  0  0  0  0
   -0.6151   -2.9527    0.3775 H   0  0  0  0  0  0  0  0  0  0  0  0
   -7.5784    0.8898    2.8586 H   0  0  0  0  0  0  0  0  0  0  0  0
   -8.2749   -0.1962    1.6467 H   0  0  0  0  0  0  0  0  0  0  0  0
   -8.0239    1.5197    1.2655 H   0  0  0  0  0  0  0  0  0  0  0  0
    3.5682    2.3667   -0.8148 H   0  0  0  0  0  0  0  0  0  0  0  0
    4.3211   -1.2816   -0.5050 H   0  0  0  0  0  0  0  0  0  0  0  0
   -0.8287    3.1753   -0.9910 H   0  0  0  0  0  0  0  0  0  0  0  0
   -1.7129    1.7160   -0.6659 H   0  0  0  0  0  0  0  0  0  0  0  0
    5.3060    1.4419    0.5443 H   0  0  0  0  0  0  0  0  0  0  0  0
    7.4372    1.4792    1.0586 H   0  0  0  0  0  0  0  0  0  0  0  0
    9.1536   -0.9489    0.6539 H   0  0  0  0  0  0  0  0  0  0  0  0
    9.6738    0.7563    0.5091 H   0  0  0  0  0  0  0  0  0  0  0  0
    9.2174    0.0980    2.1018 H   0  0  0  0  0  0  0  0  0  0  0  0
  1 14  1  0  0  0  0
  1 19  1  0  0  0  0
  2 18  1  0  0  0  0
  3 26  2  0  0  0  0
  4 12  1  0  0  0  0
  4 17  1  0  0  0  0
  4 31  1  0  0  0  0
  5 20  2  0  0  0  0
  5 23  1  0  0  0  0
  6 20  1  0  0  0  0
  6 38  1  0  0  0  0
  6 39  1  0  0  0  0
  7 26  1  0  0  0  0
  7 27  1  0  0  0  0
  7 41  1  0  0  0  0
  8  9  1  0  0  0  0
  8 11  1  0  0  0  0
  8 19  2  0  0  0  0
  9 13  1  0  0  0  0
  9 15  2  0  0  0  0
 10 12  1  0  0  0  0
 10 13  2  0  0  0  0
 10 16  1  0  0  0  0
 11 14  2  0  0  0  0
 11 20  1  0  0  0  0
 12 18  2  0  0  0  0
 13 28  1  0  0  0  0
 14 21  1  0  0  0  0
 15 18  1  0  0  0  0
 15 29  1  0  0  0  0
 16 17  2  0  0  0  0
 16 30  1  0  0  0  0
 17 22  1  0  0  0  0
 19 32  1  0  0  0  0
 21 23  2  0  0  0  0
 21 24  1  0  0  0  0
 22 33  1  0  0  0  0
 22 34  1  0  0  0  0
 22 35  1  0  0  0  0
 23 36  1  0  0  0  0
 24 25  2  3  0  0  0
 24 37  1  0  0  0  0
 25 26  1  0  0  0  0
 25 40  1  0  0  0  0
 27 42  1  0  0  0  0
 27 43  1  0  0  0  0
 27 44  1  0  0  0  0
M  END
> <PUBCHEM_COMPOUND_CID>
49830816

> <PUBCHEM_CONFORMER_RMSD>
0.8

> <PUBCHEM_CONFORMER_DIVERSEORDER>
2
3
6
7
5
4
1

> <PUBCHEM_MMFF94_PARTIAL_CHARGES>
36
1 -0.08
12 -0.15
13 -0.15
14 0.04
15 -0.15
16 -0.15
17 -0.33
18 0.19
19 -0.11
2 -0.19
20 0.41
21 0.03
22 0.18
23 0.16
24 -0.18
25 -0.14
26 0.62
27 0.3
28 0.15
29 0.15
3 -0.57
30 0.15
31 0.27
32 0.15
36 0.15
37 0.15
38 0.4
39 0.4
4 0.03
40 0.15
41 0.37
5 -0.62
6 -0.9
7 -0.73
8 -0.05
9 0.05

> <PUBCHEM_EFFECTIVE_ROTOR_COUNT>
4

> <PUBCHEM_PHARMACOPHORE_FEATURES>
10
1 3 acceptor
1 4 cation
1 4 donor
1 6 donor
1 7 donor
3 5 6 20 cation
5 1 8 11 14 19 rings
5 4 10 12 16 17 rings
6 5 11 14 20 21 23 rings
6 9 10 12 13 15 18 rings

> <PUBCHEM_HEAVY_ATOM_COUNT>
27

> <PUBCHEM_ATOM_DEF_STEREO_COUNT>
0

> <PUBCHEM_ATOM_UDEF_STEREO_COUNT>
0

> <PUBCHEM_BOND_DEF_STEREO_COUNT>
0

> <PUBCHEM_BOND_UDEF_STEREO_COUNT>
1

> <PUBCHEM_ISOTOPIC_ATOM_COUNT>
0

> <PUBCHEM_COMPONENT_COUNT>
1

> <PUBCHEM_CACTVS_TAUTO_COUNT>
7

> <PUBCHEM_CONFORMER_ID>
02F85BA000000002

> <PUBCHEM_MMFF94_ENERGY>
65.3218

> <PUBCHEM_FEATURE_SELFOVERLAP>
50.903

> <PUBCHEM_SHAPE_FINGERPRINT>
10 15 17458348572121037482
10319926 262 15864340381160842597
10906281 52 18340501066253820820
11089746 13 17775566450957122825
11135926 11 18334850602230758126
11315181 36 17561077038330484559
11524674 6 17821452378272643459
11646440 116 18335141990439841640
11796584 16 15841560660295757231
12236239 1 18060703888299848287
12616971 3 18340772627908253845
13140716 1 18190748728906252498
13288520 33 14273456990041736847
13533116 47 18060136502162616642
13540713 4 18046625599504503550
13673619 4 16370729248540625325
13782708 43 16805608109133658739
14251764 18 18201439203222155510
14294032 229 16988287462002797697
14849402 71 18200313359208898008
15048467 5 17275106119882307986
15461852 350 14476953506572469101
17980427 23 17703508890947000764
20511986 3 17988918968903525561
21033648 29 17458613562955556069
21150785 3 11746939797936032088
21236236 1 18335415721437829284
21267235 1 18114185207917156382
21756936 100 18131634491720600715
21781051 124 17532114781190434618
21792934 111 18261105284289152844
21792961 116 17168133512692735750
22224240 67 18343864424899556306
2297311 6 15285359531321651365
23559900 14 18264479771590206788
23569917 315 18340773731557723703
23569943 247 18126288541416784454
23576562 1 12319150937307426744
23845131 108 17476082324472968216
24771293 8 18200587112314029008
3178227 256 18040723571410307656
335352 9 18334575771979287646
3383291 50 17967814955531205034
4073 2 17561085830250521990
4325135 7 8574714598525058114
4339292 15 16226045647808949955
5028188 123 17346036797187767676
5104073 3 18191871329930007248
5265222 85 15719689739902474474
5385378 56 18410295766272479130
57527295 17 17606089885384709111
5758199 1 18201720656924918698
58260988 521 17095248016095060123
59755656 520 18408323306757585027

> <PUBCHEM_SHAPE_MULTIPOLES>
526.43
20.58
1.68
1.48
22.14
0.17
-0.15
1.22
10.34
0.95
-0.36
-2.7
0.04
-1.16

> <PUBCHEM_SHAPE_SELFOVERLAP>
1159.548

> <PUBCHEM_SHAPE_VOLUME>
289.6

> <PUBCHEM_COORDINATE_TYPE>
2
5
10

$$$$
