15745956
  -OEChem-10062121533D

 25 27  0     0  0  0  0  0  0999 V2000
   -1.4030   -2.9505    0.2359 Cl  0  0  0  0  0  0  0  0  0  0  0  0
   -4.3543    0.0619   -0.0185 S   0  0  0  0  0  0  0  0  0  0  0  0
    0.6387   -0.5580    0.0463 N   0  0  0  0  0  0  0  0  0  0  0  0
   -0.2510    1.6259   -0.1334 N   0  0  0  0  0  0  0  0  0  0  0  0
   -2.6309    2.0873   -0.1787 N   0  0  0  0  0  0  0  0  0  0  0  0
   -1.7854   -0.1921    0.0102 C   0  0  0  0  0  0  0  0  0  0  0  0
   -0.4762    0.2990   -0.0258 C   0  0  0  0  0  0  0  0  0  0  0  0
   -2.7981    0.7549   -0.0703 C   0  0  0  0  0  0  0  0  0  0  0  0
    2.0286   -0.3220    0.0320 C   0  0  0  0  0  0  0  0  0  0  0  0
   -2.3287   -1.5111    0.1163 C   0  0  0  0  0  0  0  0  0  0  0  0
   -3.7067   -1.5160    0.1122 C   0  0  0  0  0  0  0  0  0  0  0  0
    2.8942   -1.2817   -0.4935 C   0  0  0  0  0  0  0  0  0  0  0  0
    2.5395    0.8713    0.5438 C   0  0  0  0  0  0  0  0  0  0  0  0
   -1.3304    2.4296   -0.2026 C   0  0  0  0  0  0  0  0  0  0  0  0
    4.2694   -1.0483   -0.5074 C   0  0  0  0  0  0  0  0  0  0  0  0
    3.9146    1.1047    0.5297 C   0  0  0  0  0  0  0  0  0  0  0  0
    4.7796    0.1450    0.0039 C   0  0  0  0  0  0  0  0  0  0  0  0
    0.3998   -1.5434   -0.0145 H   0  0  0  0  0  0  0  0  0  0  0  0
   -4.3697   -2.3676    0.1794 H   0  0  0  0  0  0  0  0  0  0  0  0
    2.5094   -2.2154   -0.8959 H   0  0  0  0  0  0  0  0  0  0  0  0
    1.9063    1.6265    0.9976 H   0  0  0  0  0  0  0  0  0  0  0  0
   -1.1225    3.4904   -0.2885 H   0  0  0  0  0  0  0  0  0  0  0  0
    4.9430   -1.7956   -0.9163 H   0  0  0  0  0  0  0  0  0  0  0  0
    4.3132    2.0297    0.9362 H   0  0  0  0  0  0  0  0  0  0  0  0
    5.8505    0.3258   -0.0051 H   0  0  0  0  0  0  0  0  0  0  0  0
  1 10  1  0  0  0  0
  2  8  1  0  0  0  0
  2 11  1  0  0  0  0
  3  7  1  0  0  0  0
  3  9  1  0  0  0  0
  3 18  1  0  0  0  0
  4  7  1  0  0  0  0
  4 14  2  0  0  0  0
  5  8  2  0  0  0  0
  5 14  1  0  0  0  0
  6  7  2  0  0  0  0
  6  8  1  0  0  0  0
  6 10  1  0  0  0  0
  9 12  2  0  0  0  0
  9 13  1  0  0  0  0
 10 11  2  0  0  0  0
 11 19  1  0  0  0  0
 12 15  1  0  0  0  0
 12 20  1  0  0  0  0
 13 16  2  0  0  0  0
 13 21  1  0  0  0  0
 14 22  1  0  0  0  0
 15 17  2  0  0  0  0
 15 23  1  0  0  0  0
 16 17  1  0  0  0  0
 16 24  1  0  0  0  0
 17 25  1  0  0  0  0
M  END
> <PUBCHEM_COMPOUND_CID>
15745956

> <PUBCHEM_CONFORMER_RMSD>
0.6

> <PUBCHEM_CONFORMER_DIVERSEORDER>
1
3
4
2

> <PUBCHEM_MMFF94_PARTIAL_CHARGES>
24
1 -0.12
10 0.12
11 -0.11
12 -0.15
13 -0.15
14 0.47
15 -0.15
16 -0.15
17 -0.15
18 0.4
19 0.15
2 -0.08
20 0.15
21 0.15
22 0.15
23 0.15
24 0.15
25 0.15
3 -0.6
4 -0.62
5 -0.57
7 0.41
8 0.3
9 0.1

> <PUBCHEM_EFFECTIVE_ROTOR_COUNT>
2

> <PUBCHEM_PHARMACOPHORE_FEATURES>
7
1 3 cation
1 3 donor
1 5 acceptor
3 4 5 14 cation
5 2 6 8 10 11 rings
6 4 5 6 7 8 14 rings
6 9 12 13 15 16 17 rings

> <PUBCHEM_HEAVY_ATOM_COUNT>
17

> <PUBCHEM_ATOM_DEF_STEREO_COUNT>
0

> <PUBCHEM_ATOM_UDEF_STEREO_COUNT>
0

> <PUBCHEM_BOND_DEF_STEREO_COUNT>
0

> <PUBCHEM_BOND_UDEF_STEREO_COUNT>
0

> <PUBCHEM_ISOTOPIC_ATOM_COUNT>
0

> <PUBCHEM_COMPONENT_COUNT>
1

> <PUBCHEM_CACTVS_TAUTO_COUNT>
4

> <PUBCHEM_CONFORMER_ID>
00F043A400000001

> <PUBCHEM_MMFF94_ENERGY>
46.7866

> <PUBCHEM_FEATURE_SELFOVERLAP>
35.601

> <PUBCHEM_SHAPE_FINGERPRINT>
10366900 7 18130500916115843368
10608611 8 18341609309212797856
10616163 171 18410857685238349446
11132069 177 18410007766733237905
11615757 297 17132116861788453026
12173636 292 18264766571534879269
12236239 1 17312821572048948330
12500047 106 18336824187126524316
13140716 1 18120945159601728451
14115302 16 18040722514611086487
14790565 3 18338805494659923361
15042514 8 18335708303432238259
15196674 1 18411699902238169450
15219456 202 18272650134525409212
15375358 24 18342175583091254070
17804303 29 18341052994677861257
17834074 16 18413389834799567538
1813 80 17603586369525992805
19141452 34 18201441428173918679
200 152 17418089914497901711
20510252 161 18342458097639896241
20645477 56 18409168787890390821
20645477 70 17346323648809359766
21029758 11 18342170103245623817
21079973 296 18410574028401882562
21267235 1 18409176527453165211
221490 88 18413395337074673370
2297311 6 18340219543425918686
23175994 123 17203332195433315264
23402539 116 18413100680574410247
23557571 272 18271535234230551292
23559900 14 18340484478863477766
2871803 45 18409162208084960886
4028521 119 18334006168899783589
4214541 1 18411419467007638728
43471831 8 18188770527057604947
474 4 16879081922047073148
5104073 3 18341330007526190266
69090 78 18342173366946112583
77779 3 18413109446475898052
81228 2 18334304166547331089
8809292 202 18410577300966690426
9709674 26 18341899571566346598

> <PUBCHEM_SHAPE_MULTIPOLES>
340.63
8.93
2.48
0.69
5.82
0.32
-0.01
0.8
0.07
-1.71
0.01
0.18
0.02
0.69

> <PUBCHEM_SHAPE_SELFOVERLAP>
730.062

> <PUBCHEM_SHAPE_VOLUME>
190.1

> <PUBCHEM_COORDINATE_TYPE>
2
5
10

$$$$
