24905204
  -OEChem-10052115163D

 33 36  0     0  0  0  0  0  0999 V2000
    2.7837    1.7057    0.1429 N   0  0  0  0  0  0  0  0  0  0  0  0
    1.4625    1.8993   -0.0267 N   0  0  0  0  0  0  0  0  0  0  0  0
    4.3845   -0.1043    0.2972 N   0  0  0  0  0  0  0  0  0  0  0  0
    3.3068   -2.2822    0.0830 N   0  0  0  0  0  0  0  0  0  0  0  0
    0.9550   -2.5315   -0.2394 N   0  0  0  0  0  0  0  0  0  0  0  0
   -4.5138   -0.1310   -0.9265 N   0  0  0  0  0  0  0  0  0  0  0  0
    0.9768    0.6575   -0.1316 C   0  0  0  0  0  0  0  0  0  0  0  0
    1.9769   -0.3275   -0.0304 C   0  0  0  0  0  0  0  0  0  0  0  0
   -0.4312    0.4563   -0.3254 C   0  0  0  0  0  0  0  0  0  0  0  0
    3.1458    0.3914    0.1485 C   0  0  0  0  0  0  0  0  0  0  0  0
   -1.2763    0.3182    0.7719 C   0  0  0  0  0  0  0  0  0  0  0  0
   -2.6552    0.1196    0.5867 C   0  0  0  0  0  0  0  0  0  0  0  0
    2.0855   -1.7138   -0.0610 C   0  0  0  0  0  0  0  0  0  0  0  0
   -0.9587    0.3967   -1.6093 C   0  0  0  0  0  0  0  0  0  0  0  0
   -3.1977    0.0581   -0.7139 C   0  0  0  0  0  0  0  0  0  0  0  0
   -2.3295    0.1992   -1.7931 C   0  0  0  0  0  0  0  0  0  0  0  0
    3.6564    2.8457    0.2960 C   0  0  0  0  0  0  0  0  0  0  0  0
   -3.5286   -0.0224    1.6734 C   0  0  0  0  0  0  0  0  0  0  0  0
    4.3652   -1.4540    0.2509 C   0  0  0  0  0  0  0  0  0  0  0  0
   -4.8852   -0.2175    1.4574 C   0  0  0  0  0  0  0  0  0  0  0  0
   -5.3228   -0.2636    0.1493 C   0  0  0  0  0  0  0  0  0  0  0  0
   -0.8683    0.3632    1.7808 H   0  0  0  0  0  0  0  0  0  0  0  0
   -0.3193    0.5008   -2.4829 H   0  0  0  0  0  0  0  0  0  0  0  0
   -2.7180    0.1558   -2.8089 H   0  0  0  0  0  0  0  0  0  0  0  0
    3.5740    3.4626   -0.6024 H   0  0  0  0  0  0  0  0  0  0  0  0
    3.3348    3.4070    1.1769 H   0  0  0  0  0  0  0  0  0  0  0  0
    4.6888    2.5133    0.4244 H   0  0  0  0  0  0  0  0  0  0  0  0
   -3.1565    0.0179    2.6945 H   0  0  0  0  0  0  0  0  0  0  0  0
    5.3275   -1.9418    0.3632 H   0  0  0  0  0  0  0  0  0  0  0  0
    0.0326   -2.1369   -0.3501 H   0  0  0  0  0  0  0  0  0  0  0  0
    1.0787   -3.5349   -0.2566 H   0  0  0  0  0  0  0  0  0  0  0  0
   -5.5746   -0.3293    2.2859 H   0  0  0  0  0  0  0  0  0  0  0  0
   -6.3726   -0.4137   -0.0807 H   0  0  0  0  0  0  0  0  0  0  0  0
  1  2  1  0  0  0  0
  1 10  1  0  0  0  0
  1 17  1  0  0  0  0
  2  7  2  0  0  0  0
  3 10  2  0  0  0  0
  3 19  1  0  0  0  0
  4 13  1  0  0  0  0
  4 19  2  0  0  0  0
  5 13  1  0  0  0  0
  5 30  1  0  0  0  0
  5 31  1  0  0  0  0
  6 15  1  0  0  0  0
  6 21  2  0  0  0  0
  7  8  1  0  0  0  0
  7  9  1  0  0  0  0
  8 10  1  0  0  0  0
  8 13  2  0  0  0  0
  9 11  2  0  0  0  0
  9 14  1  0  0  0  0
 11 12  1  0  0  0  0
 11 22  1  0  0  0  0
 12 15  2  0  0  0  0
 12 18  1  0  0  0  0
 14 16  2  0  0  0  0
 14 23  1  0  0  0  0
 15 16  1  0  0  0  0
 16 24  1  0  0  0  0
 17 25  1  0  0  0  0
 17 26  1  0  0  0  0
 17 27  1  0  0  0  0
 18 20  2  0  0  0  0
 18 28  1  0  0  0  0
 19 29  1  0  0  0  0
 20 21  1  0  0  0  0
 20 32  1  0  0  0  0
 21 33  1  0  0  0  0
M  END
> <PUBCHEM_COMPOUND_CID>
24905204

> <PUBCHEM_CONFORMER_RMSD>
0.6

> <PUBCHEM_CONFORMER_DIVERSEORDER>
1
2

> <PUBCHEM_MMFF94_PARTIAL_CHARGES>
28
1 0.31
10 0.11
11 -0.15
13 0.41
14 -0.15
15 0.31
16 -0.15
17 0.26
18 -0.15
19 0.47
2 -0.71
20 -0.15
21 0.16
22 0.15
23 0.15
24 0.15
28 0.15
29 0.15
3 -0.57
30 0.4
31 0.4
32 0.15
33 0.15
4 -0.62
5 -0.9
6 -0.62
7 0.23
9 0.05

> <PUBCHEM_EFFECTIVE_ROTOR_COUNT>
1

> <PUBCHEM_PHARMACOPHORE_FEATURES>
10
1 2 acceptor
1 5 cation
1 5 donor
1 6 acceptor
3 1 3 10 cation
3 3 4 19 cation
5 1 2 7 8 10 rings
6 3 4 8 10 13 19 rings
6 6 12 15 18 20 21 rings
6 9 11 12 14 15 16 rings

> <PUBCHEM_HEAVY_ATOM_COUNT>
21

> <PUBCHEM_ATOM_DEF_STEREO_COUNT>
0

> <PUBCHEM_ATOM_UDEF_STEREO_COUNT>
0

> <PUBCHEM_BOND_DEF_STEREO_COUNT>
0

> <PUBCHEM_BOND_UDEF_STEREO_COUNT>
0

> <PUBCHEM_ISOTOPIC_ATOM_COUNT>
0

> <PUBCHEM_COMPONENT_COUNT>
1

> <PUBCHEM_CACTVS_TAUTO_COUNT>
5

> <PUBCHEM_CONFORMER_ID>
017C05F400000001

> <PUBCHEM_MMFF94_ENERGY>
59.808

> <PUBCHEM_FEATURE_SELFOVERLAP>
51.057

> <PUBCHEM_SHAPE_FINGERPRINT>
11552529 35 18056201512706989347
11796584 16 16589139425575168738
12107183 9 17695922029219116369
12236239 1 17632576054317145453
12390115 104 17763469817687643840
12553582 1 18270114609430931582
12596602 18 17489302014443996251
12633257 1 18411703179425349779
12670546 56 17989202638365853417
13140716 1 18266732666514518634
13533116 47 18342177782578363211
13544592 145 17821730520507049875
13583140 156 18200034087871377201
13631057 29 17697026308250489415
14252887 29 18040719185874463641
14289901 80 18412822499848177889
14341114 328 17846226583117543235
14386348 63 17676490531851466603
14739800 52 16414618501990350576
15238133 3 16917358012799236561
15375462 189 17989485216716408729
15961568 22 16009319828373238452
16752209 62 15140676982181801377
17138139 8 17485332868089807015
1813 80 17987248724883643398
18785283 64 18188772868104723508
19141452 34 18041287642751496771
200 152 18342451526529518741
204376 136 18193838365043929340
20600515 1 16081930485355269445
20645477 70 18335132094344386238
21065198 48 18202569497038934065
21065201 7 16588016888337379377
2255824 54 18343020017128025516
23557571 272 17095518466080236285
23559900 14 16805599227183481546
26918003 58 18408044005096843827
31174 14 18335421253386841564
3286 77 18334017155252085766
33824 294 18408038524713409650
341906 21 15698004007294867521
38570 142 17985565574334912564
4340502 62 18341337798623517627
4409770 3 15680595143060335959
474 4 17985257719294400424
5104073 3 18341047531511213947
573450 72 17060336323401027775
602551 16 16443068326086909955
6049 1 17967529038914653668
633830 44 18059868310511982780
7495541 125 17749109989453271790
77492 1 17632290194184217468
8272917 22 18343026570931484677
9981440 41 15690091110010535176

> <PUBCHEM_SHAPE_MULTIPOLES>
402.28
10.2
2.04
1.27
5.19
0.05
0.17
-0.88
-2.33
-3.84
-0.12
1.74
0.08
0.29

> <PUBCHEM_SHAPE_SELFOVERLAP>
914.746

> <PUBCHEM_SHAPE_VOLUME>
206.5

> <PUBCHEM_COORDINATE_TYPE>
2
5
10

$$$$
