9937406
  -OEChem-10062121573D

 75 79  0     1  0  0  0  0  0999 V2000
   -5.1265   -1.8864   -1.1780 S   0  0  0  0  0  0  0  0  0  0  0  0
   -0.1569   -1.8768    0.8398 O   0  0  0  0  0  0  0  0  0  0  0  0
   -2.4306   -2.0588   -2.4153 O   0  0  0  0  0  0  0  0  0  0  0  0
    2.6069   -2.2451    0.3225 N   0  0  1  0  0  0  0  0  0  0  0  0
    3.3854   -3.4478    0.4944 N   0  0  1  0  0  0  0  0  0  0  0  0
    3.9003   -0.2415    2.0816 N   0  0  0  0  0  0  0  0  0  0  0  0
   -0.1326   -1.1007   -1.3548 N   0  0  0  0  0  0  0  0  0  0  0  0
   -3.8764    0.0157    0.0351 N   0  0  0  0  0  0  0  0  0  0  0  0
   -1.1399    3.2713   -0.4034 N   0  0  0  0  0  0  0  0  0  0  0  0
   -0.3971    3.8169    1.8147 N   0  0  0  0  0  0  0  0  0  0  0  0
   -2.3473    4.6679    0.9978 N   0  0  0  0  0  0  0  0  0  0  0  0
    4.5604   -0.8543    0.9176 C   0  0  2  0  0  0  0  0  0  0  0  0
    3.4936   -1.1792   -0.1603 C   0  0  0  0  0  0  0  0  0  0  0  0
    1.5636   -2.6213   -0.6305 C   0  0  1  0  0  0  0  0  0  0  0  0
    5.2630   -2.1611    1.3589 C   0  0  0  0  0  0  0  0  0  0  0  0
    4.2572   -3.2838    1.6579 C   0  0  0  0  0  0  0  0  0  0  0  0
    2.3764   -4.4851    0.6743 C   0  0  0  0  0  0  0  0  0  0  0  0
    1.3588   -4.1181   -0.3977 C   0  0  0  0  0  0  0  0  0  0  0  0
    5.5881    0.1412    0.3646 C   0  0  0  0  0  0  0  0  0  0  0  0
    0.3436   -1.8331   -0.2809 C   0  0  0  0  0  0  0  0  0  0  0  0
    4.9320    1.4196   -0.0713 C   0  0  0  0  0  0  0  0  0  0  0  0
   -1.3144   -0.2721   -1.2844 C   0  0  1  0  0  0  0  0  0  0  0  0
    4.4782    1.5484   -1.3788 C   0  0  0  0  0  0  0  0  0  0  0  0
    4.7853    2.4615    0.8367 C   0  0  0  0  0  0  0  0  0  0  0  0
   -1.2120    0.9419   -2.2157 C   0  0  0  0  0  0  0  0  0  0  0  0
    3.8692    2.7362   -1.7839 C   0  0  0  0  0  0  0  0  0  0  0  0
    4.1762    3.6492    0.4318 C   0  0  0  0  0  0  0  0  0  0  0  0
   -2.5333   -1.1533   -1.5825 C   0  0  0  0  0  0  0  0  0  0  0  0
    0.0301    1.8164   -1.9856 C   0  0  0  0  0  0  0  0  0  0  0  0
    3.7182    3.7865   -0.8787 C   0  0  0  0  0  0  0  0  0  0  0  0
   -3.7897   -0.9152   -0.8472 C   0  0  0  0  0  0  0  0  0  0  0  0
    0.0492    2.4389   -0.5925 C   0  0  0  0  0  0  0  0  0  0  0  0
   -6.0033   -0.9865    0.0029 C   0  0  0  0  0  0  0  0  0  0  0  0
   -5.1656   -0.0079    0.5466 C   0  0  0  0  0  0  0  0  0  0  0  0
   -7.3362   -1.1358    0.4184 C   0  0  0  0  0  0  0  0  0  0  0  0
   -5.6830    0.8505    1.5410 C   0  0  0  0  0  0  0  0  0  0  0  0
   -1.2586    3.8680    0.7416 C   0  0  0  0  0  0  0  0  0  0  0  0
   -7.8232   -0.2736    1.4040 C   0  0  0  0  0  0  0  0  0  0  0  0
   -7.0091    0.7074    1.9594 C   0  0  0  0  0  0  0  0  0  0  0  0
    3.9790   -1.4731   -1.1016 H   0  0  0  0  0  0  0  0  0  0  0  0
    2.8683   -0.3030   -0.3657 H   0  0  0  0  0  0  0  0  0  0  0  0
    1.8741   -2.4628   -1.6712 H   0  0  0  0  0  0  0  0  0  0  0  0
    5.9367   -2.4993    0.5591 H   0  0  0  0  0  0  0  0  0  0  0  0
    5.8954   -1.9894    2.2392 H   0  0  0  0  0  0  0  0  0  0  0  0
    3.6916   -3.0647    2.5727 H   0  0  0  0  0  0  0  0  0  0  0  0
    4.8139   -4.2114    1.8367 H   0  0  0  0  0  0  0  0  0  0  0  0
    2.7826   -5.4899    0.5230 H   0  0  0  0  0  0  0  0  0  0  0  0
    1.9059   -4.4412    1.6655 H   0  0  0  0  0  0  0  0  0  0  0  0
    0.3435   -4.3870   -0.0872 H   0  0  0  0  0  0  0  0  0  0  0  0
    1.5857   -4.6650   -1.3216 H   0  0  0  0  0  0  0  0  0  0  0  0
    6.1296   -0.2978   -0.4845 H   0  0  0  0  0  0  0  0  0  0  0  0
    6.3607    0.3607    1.1148 H   0  0  0  0  0  0  0  0  0  0  0  0
    3.1784   -0.8626    2.4433 H   0  0  0  0  0  0  0  0  0  0  0  0
    4.5740   -0.1124    2.8355 H   0  0  0  0  0  0  0  0  0  0  0  0
    0.3149   -1.1991   -2.2613 H   0  0  0  0  0  0  0  0  0  0  0  0
   -1.4018    0.0673   -0.2467 H   0  0  0  0  0  0  0  0  0  0  0  0
    4.5984    0.7442   -2.0991 H   0  0  0  0  0  0  0  0  0  0  0  0
    5.1457    2.3734    1.8579 H   0  0  0  0  0  0  0  0  0  0  0  0
   -2.1243    1.5454   -2.1347 H   0  0  0  0  0  0  0  0  0  0  0  0
   -1.1846    0.5898   -3.2558 H   0  0  0  0  0  0  0  0  0  0  0  0
    3.5130    2.8435   -2.8043 H   0  0  0  0  0  0  0  0  0  0  0  0
    4.0596    4.4677    1.1361 H   0  0  0  0  0  0  0  0  0  0  0  0
    0.0332    2.6149   -2.7379 H   0  0  0  0  0  0  0  0  0  0  0  0
    0.9445    1.2332   -2.1411 H   0  0  0  0  0  0  0  0  0  0  0  0
    3.2433    4.7109   -1.1939 H   0  0  0  0  0  0  0  0  0  0  0  0
    0.1129    1.6580    0.1730 H   0  0  0  0  0  0  0  0  0  0  0  0
    0.9467    3.0603   -0.5104 H   0  0  0  0  0  0  0  0  0  0  0  0
   -7.9777   -1.8994   -0.0107 H   0  0  0  0  0  0  0  0  0  0  0  0
   -5.0556    1.6204    1.9812 H   0  0  0  0  0  0  0  0  0  0  0  0
   -8.8521   -0.3722    1.7399 H   0  0  0  0  0  0  0  0  0  0  0  0
   -7.4052    1.3691    2.7248 H   0  0  0  0  0  0  0  0  0  0  0  0
    0.4598    3.2754    1.7956 H   0  0  0  0  0  0  0  0  0  0  0  0
   -0.5941    4.3291    2.6677 H   0  0  0  0  0  0  0  0  0  0  0  0
   -2.4592    5.1427    1.8869 H   0  0  0  0  0  0  0  0  0  0  0  0
   -3.0722    4.8041    0.3017 H   0  0  0  0  0  0  0  0  0  0  0  0
  1 31  1  0  0  0  0
  1 33  1  0  0  0  0
  2 20  2  0  0  0  0
  3 28  2  0  0  0  0
  4  5  1  0  0  0  0
  4 13  1  0  0  0  0
  4 14  1  0  0  0  0
  5 16  1  0  0  0  0
  5 17  1  0  0  0  0
  6 12  1  0  0  0  0
  6 53  1  0  0  0  0
  6 54  1  0  0  0  0
  7 20  1  0  0  0  0
  7 22  1  0  0  0  0
  7 55  1  0  0  0  0
  8 31  2  0  0  0  0
  8 34  1  0  0  0  0
  9 32  1  0  0  0  0
  9 37  2  0  0  0  0
 10 37  1  0  0  0  0
 10 72  1  0  0  0  0
 10 73  1  0  0  0  0
 11 37  1  0  0  0  0
 11 74  1  0  0  0  0
 11 75  1  0  0  0  0
 12 13  1  0  0  0  0
 12 15  1  0  0  0  0
 12 19  1  0  0  0  0
 13 40  1  0  0  0  0
 13 41  1  0  0  0  0
 14 18  1  0  0  0  0
 14 20  1  0  0  0  0
 14 42  1  0  0  0  0
 15 16  1  0  0  0  0
 15 43  1  0  0  0  0
 15 44  1  0  0  0  0
 16 45  1  0  0  0  0
 16 46  1  0  0  0  0
 17 18  1  0  0  0  0
 17 47  1  0  0  0  0
 17 48  1  0  0  0  0
 18 49  1  0  0  0  0
 18 50  1  0  0  0  0
 19 21  1  0  0  0  0
 19 51  1  0  0  0  0
 19 52  1  0  0  0  0
 21 23  2  0  0  0  0
 21 24  1  0  0  0  0
 22 25  1  0  0  0  0
 22 28  1  0  0  0  0
 22 56  1  0  0  0  0
 23 26  1  0  0  0  0
 23 57  1  0  0  0  0
 24 27  2  0  0  0  0
 24 58  1  0  0  0  0
 25 29  1  0  0  0  0
 25 59  1  0  0  0  0
 25 60  1  0  0  0  0
 26 30  2  0  0  0  0
 26 61  1  0  0  0  0
 27 30  1  0  0  0  0
 27 62  1  0  0  0  0
 28 31  1  0  0  0  0
 29 32  1  0  0  0  0
 29 63  1  0  0  0  0
 29 64  1  0  0  0  0
 30 65  1  0  0  0  0
 32 66  1  0  0  0  0
 32 67  1  0  0  0  0
 33 34  1  0  0  0  0
 33 35  2  0  0  0  0
 34 36  2  0  0  0  0
 35 38  1  0  0  0  0
 35 68  1  0  0  0  0
 36 39  1  0  0  0  0
 36 69  1  0  0  0  0
 38 39  2  0  0  0  0
 38 70  1  0  0  0  0
 39 71  1  0  0  0  0
M  END
> <PUBCHEM_COMPOUND_CID>
9937406

> <PUBCHEM_CONFORMER_RMSD>
1.4

> <PUBCHEM_CONFORMER_DIVERSEORDER>
2
87
25
27
385
101
147
131
255
133
267
31
67
253
160
44
256
377
34
316
238
294
389
265
339
141
352
249
334
47
112
384
208
290
183
151
177
55
348
368
274
360
79
93
96
114
150
379
298
120
351
359
105
259
331
20
88
296
373
211
107
275
327
302
154
387
340
97
194
196
111
62
229
38
156
242
164
391
330
175
225
181
28
165
224
104
180
174
286
32
223
186
336
159
86
148
361
303
347
284
210
247
11
245
16
22
254
372
64
217
10
152
212
341
56
228
276
100
378
178
206
117
222
207
300
99
126
390
144
370
153
106
135
130
169
203
14
367
239
236
48
98
388
386
319
354
36
356
324
332
66
200
305
197
172
272
320
279
280
81
12
310
166
72
192
71
250
195
49
317
237
357
37
380
157
128
60
163
176
122
309
231
304
338
109
184
278
311
46
95
51
277
74
91
134
89
80
201
77
119
270
116
6
271
314
283
365
282
182
113
220
42
342
355
261
264
8
84
124
235
185
205
21
251
306
382
198
381
108
281
30
161
103
344
90
33
83
234
102
268
59
219
139
297
179
53
209
43
158
204
260
167
318
262
215
263
232
240
292
170
346
301
345
325
110
15
269
142
94
121
190
328
371
246
321
349
193
323
358
241
73
50
41
143
287
375
82
19
266
362
5
13
63
363
155
173
326
315
291
125
257
40
248
70
350
226
366
221
273
252
191
258
202
233
353
9
383
52
69
187
137
65
23
129
288
18
68
29
188
127
289
299
189
57
85
7
376
313
218
307
140
337
149
78
45
4
24
26
168
145
1
295
329
244
364
76
343
58
54
213
35
322
369
136
17
146
123
230
3
39
171
214
308
243
227
61
75
285
374
312
115
132
162
118
199
138
335
216
333
293
92

> <PUBCHEM_MMFF94_PARTIAL_CHARGES>
51
1 -0.08
10 -0.85
11 -0.85
12 0.27
13 0.27
14 0.33
16 0.27
17 0.27
19 0.14
2 -0.57
20 0.57
21 -0.14
22 0.36
23 -0.15
24 -0.15
26 -0.15
27 -0.15
28 0.59
3 -0.57
30 -0.15
31 0.29
32 0.25
33 0.04
34 0.23
35 -0.15
36 -0.15
37 0.55
38 -0.15
39 -0.15
4 -0.54
5 -0.54
53 0.36
54 0.36
55 0.37
57 0.15
58 0.15
6 -0.99
61 0.15
62 0.15
65 0.15
68 0.15
69 0.15
7 -0.73
70 0.15
71 0.15
72 0.4
73 0.4
74 0.4
75 0.4
8 -0.57
9 -0.7

> <PUBCHEM_EFFECTIVE_ROTOR_COUNT>
12.4

> <PUBCHEM_PHARMACOPHORE_FEATURES>
14
1 10 donor
1 11 donor
1 2 acceptor
1 3 acceptor
1 6 cation
1 6 donor
1 7 donor
1 8 acceptor
4 9 10 11 37 cation
5 1 8 31 33 34 rings
5 4 5 14 17 18 rings
6 21 23 24 26 27 30 rings
6 33 34 35 36 38 39 rings
6 4 5 12 13 15 16 rings

> <PUBCHEM_HEAVY_ATOM_COUNT>
39

> <PUBCHEM_ATOM_DEF_STEREO_COUNT>
3

> <PUBCHEM_ATOM_UDEF_STEREO_COUNT>
0

> <PUBCHEM_BOND_DEF_STEREO_COUNT>
0

> <PUBCHEM_BOND_UDEF_STEREO_COUNT>
0

> <PUBCHEM_ISOTOPIC_ATOM_COUNT>
0

> <PUBCHEM_COMPONENT_COUNT>
1

> <PUBCHEM_CACTVS_TAUTO_COUNT>
14

> <PUBCHEM_CONFORMER_ID>
0097A1FE00000002

> <PUBCHEM_MMFF94_ENERGY>
88.2509

> <PUBCHEM_FEATURE_SELFOVERLAP>
71.275

> <PUBCHEM_SHAPE_FINGERPRINT>
10006869 2 18271810077751623709
10190108 129 18337124405103637988
10258939 38 17023172864404847717
10674148 151 17988654042858053308
10675989 125 18266740380081506144
12422481 6 18187921759857190045
12677640 9 17764023962398575567
12788726 201 18271256018343971540
1361 2 18335982085932156512
13782708 43 15647344069760582275
14028597 1 18270974521617864213
14114211 80 18120940770240045574
14394314 77 18270401719199636345
14400156 260 18126876874974558841
14784336 7 17767106976091704383
14790565 3 18265893738435754348
15001296 14 18264489666477406036
15274700 259 18116414966365978781
15392192 104 17460333259265378799
15406563 185 17631186340508808512
15721738 202 18260264135980893344
17980427 23 17846774106060173263
19315092 285 16155096206899248258
20764821 26 17977363247819342320
3178227 256 18259982678880403458
373842 8 18267019454002511341
392239 28 18334849511282457119
394071 54 18334295379039150543
469060 322 16735249080367092911
56638632 10 17692548014253662505
58083652 198 18335967723893925535
5951187 136 17987527073171856092

> <PUBCHEM_SHAPE_MULTIPOLES>
754.86
16.85
6.06
1.99
24.19
1.64
0.28
-0.76
-7.84
-7.35
-1.24
0.81
0.36
-3.47

> <PUBCHEM_SHAPE_SELFOVERLAP>
1605.17

> <PUBCHEM_SHAPE_VOLUME>
421.8

> <PUBCHEM_COORDINATE_TYPE>
2
5
10

$$$$
