49830572
  -OEChem-10062121563D

 47 50  0     0  0  0  0  0  0999 V2000
   -3.0703    0.7794    1.4824 S   0  0  0  0  0  0  0  0  0  0  0  0
   -4.2250    1.4270    2.0907 O   0  0  0  0  0  0  0  0  0  0  0  0
   -2.3837   -0.2688    2.2256 O   0  0  0  0  0  0  0  0  0  0  0  0
    2.6451   -2.9899    1.5732 O   0  0  0  0  0  0  0  0  0  0  0  0
    1.9545    0.5734   -0.8178 N   0  0  0  0  0  0  0  0  0  0  0  0
   -1.9230    1.9894    1.0272 N   0  0  0  0  0  0  0  0  0  0  0  0
    3.7993   -1.2964    0.6921 N   0  0  0  0  0  0  0  0  0  0  0  0
   -2.7217   -0.6729   -0.8347 C   0  0  0  0  0  0  0  0  0  0  0  0
   -1.3711   -0.9682   -0.4115 C   0  0  0  0  0  0  0  0  0  0  0  0
   -3.5757    0.1078   -0.0559 C   0  0  0  0  0  0  0  0  0  0  0  0
    1.0244   -0.3715   -0.3766 C   0  0  0  0  0  0  0  0  0  0  0  0
    1.2896   -1.5057    0.3915 C   0  0  0  0  0  0  0  0  0  0  0  0
   -0.3202   -0.1268   -0.7653 C   0  0  0  0  0  0  0  0  0  0  0  0
   -1.1049   -2.0891    0.3486 C   0  0  0  0  0  0  0  0  0  0  0  0
    0.2062   -2.3521    0.7430 C   0  0  0  0  0  0  0  0  0  0  0  0
    3.3334    0.7270   -0.6774 C   0  0  0  0  0  0  0  0  0  0  0  0
   -3.1647   -1.1885   -2.0526 C   0  0  0  0  0  0  0  0  0  0  0  0
   -4.8728    0.3730   -0.4950 C   0  0  0  0  0  0  0  0  0  0  0  0
    4.1783   -0.1308    0.0147 C   0  0  0  0  0  0  0  0  0  0  0  0
    2.6105   -1.9498    0.9033 C   0  0  0  0  0  0  0  0  0  0  0  0
   -4.4619   -0.9236   -2.4918 C   0  0  0  0  0  0  0  0  0  0  0  0
   -5.3160   -0.1428   -1.7129 C   0  0  0  0  0  0  0  0  0  0  0  0
    3.9080    1.8626   -1.3015 C   0  0  0  0  0  0  0  0  0  0  0  0
   -2.3955    3.0911    0.1508 C   0  0  0  0  0  0  0  0  0  0  0  0
   -0.9827    2.4730    2.0698 C   0  0  0  0  0  0  0  0  0  0  0  0
    5.5615    0.1565    0.0707 C   0  0  0  0  0  0  0  0  0  0  0  0
    5.2728    2.1382   -1.2413 C   0  0  0  0  0  0  0  0  0  0  0  0
    6.1057    1.2784   -0.5495 C   0  0  0  0  0  0  0  0  0  0  0  0
   -0.5388    0.7543   -1.3714 H   0  0  0  0  0  0  0  0  0  0  0  0
   -1.8958   -2.7738    0.6442 H   0  0  0  0  0  0  0  0  0  0  0  0
    1.5310    1.3197   -1.3640 H   0  0  0  0  0  0  0  0  0  0  0  0
    0.3595   -3.2492    1.3405 H   0  0  0  0  0  0  0  0  0  0  0  0
   -2.5135   -1.7992   -2.6740 H   0  0  0  0  0  0  0  0  0  0  0  0
   -5.5632    0.9796    0.0832 H   0  0  0  0  0  0  0  0  0  0  0  0
    4.5791   -1.7795    1.1348 H   0  0  0  0  0  0  0  0  0  0  0  0
   -4.8069   -1.3248   -3.4402 H   0  0  0  0  0  0  0  0  0  0  0  0
   -6.3257    0.0642   -2.0557 H   0  0  0  0  0  0  0  0  0  0  0  0
    3.2733    2.5560   -1.8528 H   0  0  0  0  0  0  0  0  0  0  0  0
   -3.0798    3.7461    0.6974 H   0  0  0  0  0  0  0  0  0  0  0  0
   -1.5436    3.6834   -0.1983 H   0  0  0  0  0  0  0  0  0  0  0  0
   -2.8947    2.6979   -0.7376 H   0  0  0  0  0  0  0  0  0  0  0  0
   -0.1642    3.0326    1.6066 H   0  0  0  0  0  0  0  0  0  0  0  0
   -1.5032    3.1197    2.7817 H   0  0  0  0  0  0  0  0  0  0  0  0
   -0.5371    1.6275    2.6011 H   0  0  0  0  0  0  0  0  0  0  0  0
    6.2390   -0.5051    0.6092 H   0  0  0  0  0  0  0  0  0  0  0  0
    5.6753    3.0185   -1.7324 H   0  0  0  0  0  0  0  0  0  0  0  0
    7.1716    1.4739   -0.4897 H   0  0  0  0  0  0  0  0  0  0  0  0
  1  2  2  0  0  0  0
  1  3  2  0  0  0  0
  1  6  1  0  0  0  0
  1 10  1  0  0  0  0
  4 20  2  0  0  0  0
  5 11  1  0  0  0  0
  5 16  1  0  0  0  0
  5 31  1  0  0  0  0
  6 24  1  0  0  0  0
  6 25  1  0  0  0  0
  7 19  1  0  0  0  0
  7 20  1  0  0  0  0
  7 35  1  0  0  0  0
  8  9  1  0  0  0  0
  8 10  1  0  0  0  0
  8 17  2  0  0  0  0
  9 13  2  0  0  0  0
  9 14  1  0  0  0  0
 10 18  2  0  0  0  0
 11 12  2  0  0  0  0
 11 13  1  0  0  0  0
 12 15  1  0  0  0  0
 12 20  1  0  0  0  0
 13 29  1  0  0  0  0
 14 15  2  0  0  0  0
 14 30  1  0  0  0  0
 15 32  1  0  0  0  0
 16 19  1  0  0  0  0
 16 23  2  0  0  0  0
 17 21  1  0  0  0  0
 17 33  1  0  0  0  0
 18 22  1  0  0  0  0
 18 34  1  0  0  0  0
 19 26  2  0  0  0  0
 21 22  2  0  0  0  0
 21 36  1  0  0  0  0
 22 37  1  0  0  0  0
 23 27  1  0  0  0  0
 23 38  1  0  0  0  0
 24 39  1  0  0  0  0
 24 40  1  0  0  0  0
 24 41  1  0  0  0  0
 25 42  1  0  0  0  0
 25 43  1  0  0  0  0
 25 44  1  0  0  0  0
 26 28  1  0  0  0  0
 26 45  1  0  0  0  0
 27 28  2  0  0  0  0
 27 46  1  0  0  0  0
 28 47  1  0  0  0  0
M  END
> <PUBCHEM_COMPOUND_CID>
49830572

> <PUBCHEM_CONFORMER_RMSD>
0.8

> <PUBCHEM_CONFORMER_DIVERSEORDER>
1
6
8
2
7
4
5
3

> <PUBCHEM_MMFF94_PARTIAL_CHARGES>
39
1 1.45
10 -0.01
11 0.1
12 0.09
13 -0.15
14 -0.15
15 -0.15
16 0.1
17 -0.15
18 -0.15
19 0.12
2 -0.65
20 0.54
21 -0.15
22 -0.15
23 -0.15
24 0.36
25 0.36
26 -0.15
27 -0.15
28 -0.15
29 0.15
3 -0.65
30 0.15
31 0.4
32 0.15
33 0.15
34 0.15
35 0.37
36 0.15
37 0.15
38 0.15
4 -0.57
45 0.15
46 0.15
47 0.15
5 -0.6
6 -0.85
7 -0.55

> <PUBCHEM_EFFECTIVE_ROTOR_COUNT>
3.4

> <PUBCHEM_PHARMACOPHORE_FEATURES>
10
1 2 acceptor
1 3 acceptor
1 4 acceptor
1 5 cation
1 5 donor
1 7 donor
6 16 19 23 26 27 28 rings
6 8 10 17 18 21 22 rings
6 9 11 12 13 14 15 rings
7 5 7 11 12 16 19 20 rings

> <PUBCHEM_HEAVY_ATOM_COUNT>
28

> <PUBCHEM_ATOM_DEF_STEREO_COUNT>
0

> <PUBCHEM_ATOM_UDEF_STEREO_COUNT>
0

> <PUBCHEM_BOND_DEF_STEREO_COUNT>
0

> <PUBCHEM_BOND_UDEF_STEREO_COUNT>
0

> <PUBCHEM_ISOTOPIC_ATOM_COUNT>
0

> <PUBCHEM_COMPONENT_COUNT>
1

> <PUBCHEM_CACTVS_TAUTO_COUNT>
7

> <PUBCHEM_CONFORMER_ID>
02F85AAC00000001

> <PUBCHEM_MMFF94_ENERGY>
109.7369

> <PUBCHEM_FEATURE_SELFOVERLAP>
50.777

> <PUBCHEM_SHAPE_FINGERPRINT>
10319926 262 15068617184846665250
10670039 82 18202286896775569028
10871710 139 18343024359382562425
11049842 53 16986035574860575055
12107698 1 17775280608421152320
12236239 1 18342170055626489487
12788726 201 18202561752943861001
13583140 156 16588022437382222624
13631057 29 18119243115644960551
13947920 75 17846500348358834820
13994607 96 18338812194512733131
14294032 229 17345765084423950481
14739800 52 18129643293368487552
14840074 17 18343030965073905921
14910302 57 16056876918503658343
14931854 50 18413107277533673700
15021287 119 18049158874374722170
15183329 4 18410863149264490294
15961568 22 17130403882944839608
17492 54 18342449353566282405
20511986 3 18341881983358641373
21033648 29 16153703177058815551
21033650 10 17274558567523916570
21304303 64 18186519900281681749
2132832 1 18120353390227892458
21756936 100 18271261489714821626
21864079 5 18265903466578831962
23557571 272 16272201990306418547
23559900 14 15482668004916623007
25147074 1 18270959042449805626
335352 9 18040990762038357686
34797466 226 16271635810384596818
3633792 109 18261943055644491703
4098825 35 17968367962983365397
469060 322 17460894027127669539
474 4 18259984881718389858
5104073 3 17751074915949048016
6034566 193 17315938816610801724
9953998 17 11747215814505305628

> <PUBCHEM_SHAPE_MULTIPOLES>
547.53
12.3
2.82
2.02
9
0.54
0.12
4.02
-4.95
0.64
1.17
-2.24
0.18
-3.31

> <PUBCHEM_SHAPE_SELFOVERLAP>
1193.521

> <PUBCHEM_SHAPE_VOLUME>
297.8

> <PUBCHEM_COORDINATE_TYPE>
2
5
10

$$$$
