49831011
  -OEChem-10062121533D

 38 41  0     1  0  0  0  0  0999 V2000
   -4.3596    2.0499    0.8534 O   0  0  0  0  0  0  0  0  0  0  0  0
    0.4257   -3.6863    0.2187 O   0  0  0  0  0  0  0  0  0  0  0  0
   -0.8802   -0.5229   -0.4107 N   0  0  0  0  0  0  0  0  0  0  0  0
    2.1358   -2.4257   -0.7831 N   0  0  0  0  0  0  0  0  0  0  0  0
    4.0337    3.8611    0.6080 N   0  0  0  0  0  0  0  0  0  0  0  0
   -4.3927    0.7050    0.3776 C   0  0  1  0  0  0  0  0  0  0  0  0
   -4.8843    0.6900   -1.0727 C   0  0  0  0  0  0  0  0  0  0  0  0
   -3.7963    1.1948   -2.0173 C   0  0  0  0  0  0  0  0  0  0  0  0
   -3.0105    0.1306    0.5385 C   0  0  0  0  0  0  0  0  0  0  0  0
   -2.5741    0.2827   -1.9502 C   0  0  0  0  0  0  0  0  0  0  0  0
    0.9166   -1.3870    0.9606 C   0  0  2  0  0  0  0  0  0  0  0  0
   -2.1376   -0.0292   -0.5431 C   0  0  0  0  0  0  0  0  0  0  0  0
   -0.4708   -0.8527    0.8337 C   0  0  0  0  0  0  0  0  0  0  0  0
    1.9635   -0.4748    0.3818 C   0  0  0  0  0  0  0  0  0  0  0  0
   -2.5399   -0.2217    1.8083 C   0  0  0  0  0  0  0  0  0  0  0  0
   -1.2538   -0.7228    1.9650 C   0  0  0  0  0  0  0  0  0  0  0  0
    1.0891   -2.6654    0.1154 C   0  0  0  0  0  0  0  0  0  0  0  0
    2.6507   -1.1432   -0.6299 C   0  0  0  0  0  0  0  0  0  0  0  0
    2.3059    0.8202    0.7253 C   0  0  0  0  0  0  0  0  0  0  0  0
    3.6806   -0.5602   -1.3401 C   0  0  0  0  0  0  0  0  0  0  0  0
    3.3460    1.4339    0.0203 C   0  0  0  0  0  0  0  0  0  0  0  0
    4.0265    0.7499   -1.0041 C   0  0  0  0  0  0  0  0  0  0  0  0
    3.7255    2.7736    0.3446 C   0  0  0  0  0  0  0  0  0  0  0  0
   -5.1008    0.1456    1.0004 H   0  0  0  0  0  0  0  0  0  0  0  0
   -5.7750    1.3199   -1.1790 H   0  0  0  0  0  0  0  0  0  0  0  0
   -5.1643   -0.3314   -1.3597 H   0  0  0  0  0  0  0  0  0  0  0  0
   -3.5144    2.2203   -1.7475 H   0  0  0  0  0  0  0  0  0  0  0  0
   -4.1750    1.2267   -3.0451 H   0  0  0  0  0  0  0  0  0  0  0  0
   -2.8022   -0.6679   -2.4482 H   0  0  0  0  0  0  0  0  0  0  0  0
   -1.7457    0.7472   -2.4976 H   0  0  0  0  0  0  0  0  0  0  0  0
    1.1852   -1.6357    1.9944 H   0  0  0  0  0  0  0  0  0  0  0  0
   -3.1760   -0.1039    2.6818 H   0  0  0  0  0  0  0  0  0  0  0  0
   -0.8913   -0.9961    2.9500 H   0  0  0  0  0  0  0  0  0  0  0  0
    2.4787   -3.0903   -1.4666 H   0  0  0  0  0  0  0  0  0  0  0  0
    1.7781    1.3379    1.5204 H   0  0  0  0  0  0  0  0  0  0  0  0
   -5.2630    2.4046    0.7931 H   0  0  0  0  0  0  0  0  0  0  0  0
    4.2049   -1.0903   -2.1268 H   0  0  0  0  0  0  0  0  0  0  0  0
    4.8349    1.2354   -1.5471 H   0  0  0  0  0  0  0  0  0  0  0  0
  1  6  1  0  0  0  0
  1 36  1  0  0  0  0
  2 17  2  0  0  0  0
  3 12  1  0  0  0  0
  3 13  2  0  0  0  0
  4 17  1  0  0  0  0
  4 18  1  0  0  0  0
  4 34  1  0  0  0  0
  5 23  3  0  0  0  0
  6  7  1  0  0  0  0
  6  9  1  0  0  0  0
  6 24  1  0  0  0  0
  7  8  1  0  0  0  0
  7 25  1  0  0  0  0
  7 26  1  0  0  0  0
  8 10  1  0  0  0  0
  8 27  1  0  0  0  0
  8 28  1  0  0  0  0
  9 12  2  0  0  0  0
  9 15  1  0  0  0  0
 10 12  1  0  0  0  0
 10 29  1  0  0  0  0
 10 30  1  0  0  0  0
 11 13  1  0  0  0  0
 11 14  1  0  0  0  0
 11 17  1  0  0  0  0
 11 31  1  0  0  0  0
 13 16  1  0  0  0  0
 14 18  2  0  0  0  0
 14 19  1  0  0  0  0
 15 16  2  0  0  0  0
 15 32  1  0  0  0  0
 16 33  1  0  0  0  0
 18 20  1  0  0  0  0
 19 21  2  0  0  0  0
 19 35  1  0  0  0  0
 20 22  2  0  0  0  0
 20 37  1  0  0  0  0
 21 22  1  0  0  0  0
 21 23  1  0  0  0  0
 22 38  1  0  0  0  0
M  END
> <PUBCHEM_COMPOUND_CID>
49831011

> <PUBCHEM_CONFORMER_RMSD>
0.6

> <PUBCHEM_CONFORMER_DIVERSEORDER>
1
7
11
14
6
13
2
8
4
5
12
3
16
10
9
15

> <PUBCHEM_MMFF94_PARTIAL_CHARGES>
28
1 -0.68
10 0.14
11 0.35
12 0.17
13 0.17
14 -0.14
15 -0.15
16 -0.15
17 0.57
18 0.12
19 -0.15
2 -0.57
20 -0.15
21 0.07
22 -0.15
23 0.48
3 -0.62
32 0.15
33 0.15
34 0.37
35 0.15
36 0.4
37 0.15
38 0.15
4 -0.55
5 -0.56
6 0.42
9 -0.14

> <PUBCHEM_EFFECTIVE_ROTOR_COUNT>
2.2

> <PUBCHEM_PHARMACOPHORE_FEATURES>
10
1 1 acceptor
1 1 donor
1 2 acceptor
1 3 acceptor
1 4 donor
1 5 acceptor
5 4 11 14 17 18 rings
6 14 18 19 20 21 22 rings
6 3 9 12 13 15 16 rings
6 6 7 8 9 10 12 rings

> <PUBCHEM_HEAVY_ATOM_COUNT>
23

> <PUBCHEM_ATOM_DEF_STEREO_COUNT>
0

> <PUBCHEM_ATOM_UDEF_STEREO_COUNT>
2

> <PUBCHEM_BOND_DEF_STEREO_COUNT>
0

> <PUBCHEM_BOND_UDEF_STEREO_COUNT>
0

> <PUBCHEM_ISOTOPIC_ATOM_COUNT>
0

> <PUBCHEM_COMPONENT_COUNT>
1

> <PUBCHEM_CACTVS_TAUTO_COUNT>
6

> <PUBCHEM_CONFORMER_ID>
02F85C6300000001

> <PUBCHEM_MMFF94_ENERGY>
54.6104

> <PUBCHEM_FEATURE_SELFOVERLAP>
50.862

> <PUBCHEM_SHAPE_FINGERPRINT>
10165383 225 18046098010000999046
10319926 262 16877935040707933936
10498660 4 18408884070234529237
105312 117 18123472945661803348
10928967 22 14979660152919127925
11543360 7 18271800212353824911
11595378 159 14707214305413198989
11725454 13 18040427815287783098
12403259 415 18263657306310400960
12633257 1 16081364206459165924
12730499 353 18335149669772873219
12769317 202 18342170090065667368
12892183 10 12179842831517374446
13134695 92 17901079959728471874
13224815 77 16950567619498092607
13533116 47 9294994813516548845
14556957 393 17475557922182845286
14848178 96 18411138069198492816
16752209 62 15697435491285577835
1813 80 17411346412307174022
18186145 218 18412267246275593398
19862831 5 17418092096499634575
21033648 29 17894911845129748292
22122407 14 18054812606351790353
22149856 69 15648468715975032469
22907989 373 17403730542116749620
23557571 272 17458928001553068827
23559900 14 16951129443722163523
238 59 18341611490787184862
25 1 18411427198065023954
341906 21 16008751273545127333
474 4 18412820309013943312
495365 180 18334006168731179706
574716 61 17847061099199700013
633830 44 18272939314430998669
7399639 24 18189346817311128371
7471813 234 17913767224332560498
7808743 9 17169005524255858628

> <PUBCHEM_SHAPE_MULTIPOLES>
446.65
9.32
3.1
1.7
3.77
0.12
0.17
7.56
2.1
-3.95
-0.47
1.35
0.14
1.37

> <PUBCHEM_SHAPE_SELFOVERLAP>
994.762

> <PUBCHEM_SHAPE_VOLUME>
236.1

> <PUBCHEM_COORDINATE_TYPE>
2
5
10

$$$$
