49830619
  -OEChem-10052120443D

 55 58  0     0  0  0  0  0  0999 V2000
   -2.3749    4.8479   -0.7364 F   0  0  0  0  0  0  0  0  0  0  0  0
   -5.4209    0.7373    0.4130 O   0  0  0  0  0  0  0  0  0  0  0  0
   -3.0478   -1.7760   -0.2210 N   0  0  0  0  0  0  0  0  0  0  0  0
    2.5996   -0.9547   -0.1558 N   0  0  0  0  0  0  0  0  0  0  0  0
   -0.8323   -1.0938   -0.3733 N   0  0  0  0  0  0  0  0  0  0  0  0
    2.7697    1.1937    0.4193 N   0  0  0  0  0  0  0  0  0  0  0  0
   -1.8547   -2.4167   -2.1089 N   0  0  0  0  0  0  0  0  0  0  0  0
    5.1732   -1.5073    0.7268 N   0  0  0  0  0  0  0  0  0  0  0  0
    5.5284    0.7057    1.3916 N   0  0  0  0  0  0  0  0  0  0  0  0
   -4.6712   -1.2724    1.5881 C   0  0  0  0  0  0  0  0  0  0  0  0
   -3.2248   -1.1242    1.0566 C   0  0  0  0  0  0  0  0  0  0  0  0
   -5.7044   -0.6391    0.6298 C   0  0  0  0  0  0  0  0  0  0  0  0
   -4.7450   -0.5640    2.9569 C   0  0  0  0  0  0  0  0  0  0  0  0
   -5.0243   -2.7576    1.7909 C   0  0  0  0  0  0  0  0  0  0  0  0
    1.4042   -0.3856   -0.4917 C   0  0  0  0  0  0  0  0  0  0  0  0
   -1.8595   -1.7615   -0.9323 C   0  0  0  0  0  0  0  0  0  0  0  0
    1.5335    0.9382   -0.1276 C   0  0  0  0  0  0  0  0  0  0  0  0
    0.3094   -1.1001   -1.0924 C   0  0  0  0  0  0  0  0  0  0  0  0
    3.3826    0.0333    0.3863 C   0  0  0  0  0  0  0  0  0  0  0  0
    0.5267    1.9452   -0.2844 C   0  0  0  0  0  0  0  0  0  0  0  0
    4.7286   -0.2703    0.8447 C   0  0  0  0  0  0  0  0  0  0  0  0
    3.0908   -2.2387   -0.2665 C   0  0  0  0  0  0  0  0  0  0  0  0
    0.4444   -1.7338   -2.3109 C   0  0  0  0  0  0  0  0  0  0  0  0
   -0.6818   -2.3824   -2.7747 C   0  0  0  0  0  0  0  0  0  0  0  0
    4.3413   -2.4680    0.1715 C   0  0  0  0  0  0  0  0  0  0  0  0
    0.0382    2.2512   -1.5545 C   0  0  0  0  0  0  0  0  0  0  0  0
    0.0349    2.6197    0.8332 C   0  0  0  0  0  0  0  0  0  0  0  0
   -0.9420    3.2317   -1.7073 C   0  0  0  0  0  0  0  0  0  0  0  0
   -0.9453    3.6003    0.6805 C   0  0  0  0  0  0  0  0  0  0  0  0
   -1.4337    3.9062   -0.5897 C   0  0  0  0  0  0  0  0  0  0  0  0
    6.8572    0.4359    1.8382 C   0  0  0  0  0  0  0  0  0  0  0  0
   -2.5247   -1.5584    1.7823 H   0  0  0  0  0  0  0  0  0  0  0  0
   -2.9722   -0.0600    0.9642 H   0  0  0  0  0  0  0  0  0  0  0  0
   -6.7137   -0.7124    1.0511 H   0  0  0  0  0  0  0  0  0  0  0  0
   -5.7138   -1.1426   -0.3425 H   0  0  0  0  0  0  0  0  0  0  0  0
   -5.7558   -0.6191    3.3767 H   0  0  0  0  0  0  0  0  0  0  0  0
   -4.0613   -1.0266    3.6779 H   0  0  0  0  0  0  0  0  0  0  0  0
   -4.4742    0.4947    2.8780 H   0  0  0  0  0  0  0  0  0  0  0  0
   -4.2921   -3.2526    2.4387 H   0  0  0  0  0  0  0  0  0  0  0  0
   -6.0083   -2.8655    2.2618 H   0  0  0  0  0  0  0  0  0  0  0  0
   -5.0581   -3.3059    0.8438 H   0  0  0  0  0  0  0  0  0  0  0  0
   -3.8174   -2.2780   -0.6471 H   0  0  0  0  0  0  0  0  0  0  0  0
   -6.1046    1.0785   -0.1884 H   0  0  0  0  0  0  0  0  0  0  0  0
    2.4670   -3.0158   -0.6877 H   0  0  0  0  0  0  0  0  0  0  0  0
    1.3630   -1.7266   -2.8843 H   0  0  0  0  0  0  0  0  0  0  0  0
   -0.6723   -2.9069   -3.7242 H   0  0  0  0  0  0  0  0  0  0  0  0
    4.7636   -3.4650    0.1051 H   0  0  0  0  0  0  0  0  0  0  0  0
    0.4133    1.7444   -2.4405 H   0  0  0  0  0  0  0  0  0  0  0  0
    0.4031    2.3922    1.8308 H   0  0  0  0  0  0  0  0  0  0  0  0
    5.1818    1.6566    1.4822 H   0  0  0  0  0  0  0  0  0  0  0  0
   -1.3214    3.4715   -2.6962 H   0  0  0  0  0  0  0  0  0  0  0  0
   -1.3290    4.1252    1.5503 H   0  0  0  0  0  0  0  0  0  0  0  0
    7.4867    0.0810    1.0159 H   0  0  0  0  0  0  0  0  0  0  0  0
    7.3110    1.3498    2.2338 H   0  0  0  0  0  0  0  0  0  0  0  0
    6.8616   -0.3110    2.6386 H   0  0  0  0  0  0  0  0  0  0  0  0
  1 30  1  0  0  0  0
  2 12  1  0  0  0  0
  2 43  1  0  0  0  0
  3 11  1  0  0  0  0
  3 16  1  0  0  0  0
  3 42  1  0  0  0  0
  4 15  1  0  0  0  0
  4 19  1  0  0  0  0
  4 22  1  0  0  0  0
  5 16  1  0  0  0  0
  5 18  2  0  0  0  0
  6 17  1  0  0  0  0
  6 19  2  0  0  0  0
  7 16  2  0  0  0  0
  7 24  1  0  0  0  0
  8 21  2  0  0  0  0
  8 25  1  0  0  0  0
  9 21  1  0  0  0  0
  9 31  1  0  0  0  0
  9 50  1  0  0  0  0
 10 11  1  0  0  0  0
 10 12  1  0  0  0  0
 10 13  1  0  0  0  0
 10 14  1  0  0  0  0
 11 32  1  0  0  0  0
 11 33  1  0  0  0  0
 12 34  1  0  0  0  0
 12 35  1  0  0  0  0
 13 36  1  0  0  0  0
 13 37  1  0  0  0  0
 13 38  1  0  0  0  0
 14 39  1  0  0  0  0
 14 40  1  0  0  0  0
 14 41  1  0  0  0  0
 15 17  2  0  0  0  0
 15 18  1  0  0  0  0
 17 20  1  0  0  0  0
 18 23  1  0  0  0  0
 19 21  1  0  0  0  0
 20 26  2  0  0  0  0
 20 27  1  0  0  0  0
 22 25  2  0  0  0  0
 22 44  1  0  0  0  0
 23 24  2  0  0  0  0
 23 45  1  0  0  0  0
 24 46  1  0  0  0  0
 25 47  1  0  0  0  0
 26 28  1  0  0  0  0
 26 48  1  0  0  0  0
 27 29  2  0  0  0  0
 27 49  1  0  0  0  0
 28 30  2  0  0  0  0
 28 51  1  0  0  0  0
 29 30  1  0  0  0  0
 29 52  1  0  0  0  0
 31 53  1  0  0  0  0
 31 54  1  0  0  0  0
 31 55  1  0  0  0  0
M  END
> <PUBCHEM_COMPOUND_CID>
49830619

> <PUBCHEM_CONFORMER_RMSD>
1

> <PUBCHEM_CONFORMER_DIVERSEORDER>
1
7
19
38
27
3
25
15
45
22
24
4
34
40
43
16
30
26
44
41
32
37
29
39
10
13
12
31
2
17
36
20
18
28
23
33
6
5
42
14
21
11
8
35
9

> <PUBCHEM_MMFF94_PARTIAL_CHARGES>
39
1 -0.19
11 0.37
12 0.28
15 -0.2
16 0.72
17 0.17
18 0.36
19 0.1
2 -0.68
20 0.05
21 0.58
22 -0.18
23 -0.15
24 0.16
25 0.02
26 -0.15
27 -0.15
28 -0.15
29 -0.15
3 -0.87
30 0.19
31 0.37
4 0.33
42 0.4
43 0.4
44 0.15
45 0.15
46 0.15
47 0.15
48 0.15
49 0.15
5 -0.62
50 0.4
51 0.15
52 0.15
6 -0.57
7 -0.62
8 -0.62
9 -0.82

> <PUBCHEM_EFFECTIVE_ROTOR_COUNT>
7

> <PUBCHEM_PHARMACOPHORE_FEATURES>
13
1 2 acceptor
1 2 donor
1 3 donor
1 5 acceptor
1 9 donor
3 10 13 14 hydrophobe
3 4 6 19 cation
3 8 9 21 cation
4 3 5 7 16 cation
5 4 6 15 17 19 rings
6 20 26 27 28 29 30 rings
6 4 8 19 21 22 25 rings
6 5 7 16 18 23 24 rings

> <PUBCHEM_HEAVY_ATOM_COUNT>
31

> <PUBCHEM_ATOM_DEF_STEREO_COUNT>
0

> <PUBCHEM_ATOM_UDEF_STEREO_COUNT>
0

> <PUBCHEM_BOND_DEF_STEREO_COUNT>
0

> <PUBCHEM_BOND_UDEF_STEREO_COUNT>
0

> <PUBCHEM_ISOTOPIC_ATOM_COUNT>
0

> <PUBCHEM_COMPONENT_COUNT>
1

> <PUBCHEM_CACTVS_TAUTO_COUNT>
6

> <PUBCHEM_CONFORMER_ID>
02F85ADB00000001

> <PUBCHEM_MMFF94_ENERGY>
91.2935

> <PUBCHEM_FEATURE_SELFOVERLAP>
66.123

> <PUBCHEM_SHAPE_FINGERPRINT>
10190108 129 18336000705053306162
10688039 33 18333454235606333941
11387372 6 16964050724500834338
11456790 92 18113913671837758449
11578080 2 16985141878376002122
11828532 37 17677910096865147411
12422481 6 18271817765441987315
12741549 16 17531793775049349725
12788726 201 18188223043328297880
13140716 1 17977366559513512250
13402501 40 18339079268997330909
13540713 4 18198056981365516046
13583140 156 18189902105454726351
13965767 371 17917723387017036466
14790565 3 17617099548031852932
14840074 17 18271252719723801812
15420108 30 17628915922211614756
15775530 1 17480320979956033967
16993438 75 18265883671729121701
17980427 23 17489306464198829135
19319366 153 17397286287418848125
20739085 24 18192995056884428640
20775438 99 13120563122921654163
21033648 29 17560540446797477107
21927370 108 17749380461304330604
22182313 1 17843408375754272310
238918 7 18127979603162749407
3380486 145 18341316886126937127
5104073 3 18192694671904984986
513202 73 18264776458834905130
58260988 114 17605272870503610018
5951187 136 14185119859339182339
6009941 240 17530951467706619663
7097593 13 18194406825472306447

> <PUBCHEM_SHAPE_MULTIPOLES>
589.96
11.88
4.71
2.28
3.9
5.87
-0.3
-6.55
11.46
-3.04
-1.79
-1.48
-1.1
1.45

> <PUBCHEM_SHAPE_SELFOVERLAP>
1286.574

> <PUBCHEM_SHAPE_VOLUME>
323.8

> <PUBCHEM_COORDINATE_TYPE>
2
5
10

$$$$
