49830533
  -OEChem-10052120433D

 48 50  0     0  0  0  0  0  0999 V2000
   -3.3137   -4.4095   -1.1610 F   0  0  0  0  0  0  0  0  0  0  0  0
   -2.4153   -4.0864    0.7996 F   0  0  0  0  0  0  0  0  0  0  0  0
   -4.5598   -3.7815    0.5149 F   0  0  0  0  0  0  0  0  0  0  0  0
    4.6966   -1.9391   -0.0378 O   0  0  0  0  0  0  0  0  0  0  0  0
   -4.7504    3.1671   -0.0968 N   0  0  0  0  0  0  0  0  0  0  0  0
   -1.6721    0.5645    0.1747 N   0  0  0  0  0  0  0  0  0  0  0  0
   -2.3688    2.8489   -0.2976 N   0  0  0  0  0  0  0  0  0  0  0  0
   -0.1196    2.2172   -0.4069 N   0  0  0  0  0  0  0  0  0  0  0  0
    5.8894   -0.0052   -0.5005 N   0  0  0  0  0  0  0  0  0  0  0  0
   -3.1623   -1.2469    0.7879 C   0  0  0  0  0  0  0  0  0  0  0  0
   -2.9469    0.1806    0.4168 C   0  0  0  0  0  0  0  0  0  0  0  0
   -3.9774    1.1137    0.3110 C   0  0  0  0  0  0  0  0  0  0  0  0
   -3.0941   -2.1809   -0.4289 C   0  0  0  0  0  0  0  0  0  0  0  0
   -3.6127    2.4064   -0.0451 C   0  0  0  0  0  0  0  0  0  0  0  0
   -5.3862    1.1119    0.4754 C   0  0  0  0  0  0  0  0  0  0  0  0
   -1.4649    1.8573   -0.1628 C   0  0  0  0  0  0  0  0  0  0  0  0
   -5.8353    2.3898    0.2184 C   0  0  0  0  0  0  0  0  0  0  0  0
   -3.3485   -3.6264   -0.0602 C   0  0  0  0  0  0  0  0  0  0  0  0
    1.0814    1.4869   -0.3700 C   0  0  0  0  0  0  0  0  0  0  0  0
    3.4651    0.0396   -0.2952 C   0  0  0  0  0  0  0  0  0  0  0  0
    7.1989   -0.6165   -0.5205 C   0  0  0  0  0  0  0  0  0  0  0  0
    1.0788    0.1233   -0.6639 C   0  0  0  0  0  0  0  0  0  0  0  0
    2.2756    2.1269   -0.0387 C   0  0  0  0  0  0  0  0  0  0  0  0
    7.8610   -0.6156    0.8521 C   0  0  0  0  0  0  0  0  0  0  0  0
    2.2707   -0.6002   -0.6264 C   0  0  0  0  0  0  0  0  0  0  0  0
    3.4674    1.4032   -0.0012 C   0  0  0  0  0  0  0  0  0  0  0  0
    4.7076   -0.7148   -0.2575 C   0  0  0  0  0  0  0  0  0  0  0  0
    8.0355    0.7857    1.4202 C   0  0  0  0  0  0  0  0  0  0  0  0
   -4.1278   -1.3661    1.2932 H   0  0  0  0  0  0  0  0  0  0  0  0
   -2.3969   -1.5401    1.5175 H   0  0  0  0  0  0  0  0  0  0  0  0
   -3.8345   -1.8681   -1.1753 H   0  0  0  0  0  0  0  0  0  0  0  0
   -2.1111   -2.1001   -0.9083 H   0  0  0  0  0  0  0  0  0  0  0  0
   -6.0123    0.2743    0.7503 H   0  0  0  0  0  0  0  0  0  0  0  0
   -4.7846    4.1495   -0.3310 H   0  0  0  0  0  0  0  0  0  0  0  0
   -6.8294    2.8141    0.2314 H   0  0  0  0  0  0  0  0  0  0  0  0
   -0.0013    3.2193   -0.5219 H   0  0  0  0  0  0  0  0  0  0  0  0
    7.1079   -1.6447   -0.8870 H   0  0  0  0  0  0  0  0  0  0  0  0
    7.8073   -0.0562   -1.2385 H   0  0  0  0  0  0  0  0  0  0  0  0
    7.2644   -1.2102    1.5541 H   0  0  0  0  0  0  0  0  0  0  0  0
    8.8428   -1.0966    0.7753 H   0  0  0  0  0  0  0  0  0  0  0  0
    0.1840   -0.4061   -0.9734 H   0  0  0  0  0  0  0  0  0  0  0  0
    2.2892    3.1874    0.2000 H   0  0  0  0  0  0  0  0  0  0  0  0
    2.2502   -1.6587   -0.8730 H   0  0  0  0  0  0  0  0  0  0  0  0
    4.3682    1.9340    0.2927 H   0  0  0  0  0  0  0  0  0  0  0  0
    5.8524    0.9813   -0.7334 H   0  0  0  0  0  0  0  0  0  0  0  0
    8.6162    1.4155    0.7387 H   0  0  0  0  0  0  0  0  0  0  0  0
    7.0704    1.2695    1.6001 H   0  0  0  0  0  0  0  0  0  0  0  0
    8.5680    0.7398    2.3755 H   0  0  0  0  0  0  0  0  0  0  0  0
  1 18  1  0  0  0  0
  2 18  1  0  0  0  0
  3 18  1  0  0  0  0
  4 27  2  0  0  0  0
  5 14  1  0  0  0  0
  5 17  1  0  0  0  0
  5 34  1  0  0  0  0
  6 11  1  0  0  0  0
  6 16  2  0  0  0  0
  7 14  2  0  0  0  0
  7 16  1  0  0  0  0
  8 16  1  0  0  0  0
  8 19  1  0  0  0  0
  8 36  1  0  0  0  0
  9 21  1  0  0  0  0
  9 27  1  0  0  0  0
  9 45  1  0  0  0  0
 10 11  1  0  0  0  0
 10 13  1  0  0  0  0
 10 29  1  0  0  0  0
 10 30  1  0  0  0  0
 11 12  2  0  0  0  0
 12 14  1  0  0  0  0
 12 15  1  0  0  0  0
 13 18  1  0  0  0  0
 13 31  1  0  0  0  0
 13 32  1  0  0  0  0
 15 17  2  0  0  0  0
 15 33  1  0  0  0  0
 17 35  1  0  0  0  0
 19 22  2  0  0  0  0
 19 23  1  0  0  0  0
 20 25  2  0  0  0  0
 20 26  1  0  0  0  0
 20 27  1  0  0  0  0
 21 24  1  0  0  0  0
 21 37  1  0  0  0  0
 21 38  1  0  0  0  0
 22 25  1  0  0  0  0
 22 41  1  0  0  0  0
 23 26  2  0  0  0  0
 23 42  1  0  0  0  0
 24 28  1  0  0  0  0
 24 39  1  0  0  0  0
 24 40  1  0  0  0  0
 25 43  1  0  0  0  0
 26 44  1  0  0  0  0
 28 46  1  0  0  0  0
 28 47  1  0  0  0  0
 28 48  1  0  0  0  0
M  END
> <PUBCHEM_COMPOUND_CID>
49830533

> <PUBCHEM_CONFORMER_RMSD>
1

> <PUBCHEM_CONFORMER_DIVERSEORDER>
1
11
72
40
81
80
2
44
51
58
55
30
62
46
100
83
79
78
24
37
3
67
36
38
96
98
94
49
16
77
26
7
91
102
75
21
4
12
27
59
90
71
61
6
76
69
101
33
54
93
15
56
39
65
35
34
5
89
43
48
52
41
92
20
19
85
32
53
25
42
84
64
73
103
68
86
50
14
22
95
63
66
87
18
97
13
99
47
57
70
10
74
28
8
82
23
60
17
9
88
29
31
45

> <PUBCHEM_MMFF94_PARTIAL_CHARGES>
33
1 -0.34
10 0.14
11 0.17
14 0.11
15 -0.15
16 0.72
17 -0.3
18 1.02
19 0.1
2 -0.34
20 0.09
21 0.3
22 -0.15
23 -0.15
25 -0.15
26 -0.15
27 0.54
3 -0.34
33 0.15
34 0.27
35 0.15
36 0.4
4 -0.57
41 0.15
42 0.15
43 0.15
44 0.15
45 0.37
5 0.03
6 -0.62
7 -0.57
8 -0.6
9 -0.73

> <PUBCHEM_EFFECTIVE_ROTOR_COUNT>
9

> <PUBCHEM_PHARMACOPHORE_FEATURES>
9
1 28 hydrophobe
1 4 acceptor
1 5 donor
1 8 donor
1 9 donor
4 6 7 8 16 cation
5 5 12 14 15 17 rings
6 19 20 22 23 25 26 rings
6 6 7 11 12 14 16 rings

> <PUBCHEM_HEAVY_ATOM_COUNT>
28

> <PUBCHEM_ATOM_DEF_STEREO_COUNT>
0

> <PUBCHEM_ATOM_UDEF_STEREO_COUNT>
0

> <PUBCHEM_BOND_DEF_STEREO_COUNT>
0

> <PUBCHEM_BOND_UDEF_STEREO_COUNT>
0

> <PUBCHEM_ISOTOPIC_ATOM_COUNT>
0

> <PUBCHEM_COMPONENT_COUNT>
1

> <PUBCHEM_CACTVS_TAUTO_COUNT>
61

> <PUBCHEM_CONFORMER_ID>
02F85A8500000001

> <PUBCHEM_MMFF94_ENERGY>
60.3087

> <PUBCHEM_FEATURE_SELFOVERLAP>
45.788

> <PUBCHEM_SHAPE_FINGERPRINT>
10 15 18342168952748497624
10050765 1 18338238296894006692
10290309 65 18047186354486848326
10319926 262 18341884225906388344
10411042 1 18122347050208371843
10483366 6 18339631322993223551
10940486 97 18261403251286049316
11315181 36 17489304166117460737
11524674 6 17774719775252949911
11796584 16 18341056237863245612
12516196 113 18200873972852882688
12616971 3 17240492403276877388
12643181 29 18409164390107396496
12838862 33 18263068951483609653
138480 1 17112978462233138615
14429380 30 18191871338879429962
14659021 117 18262232343256559946
14844126 61 18409453617769576451
14866123 147 18410298043032108555
15042514 8 18337116778301536297
15250474 111 18334575767710908182
15348495 7 18271801354926227192
15361156 5 17895769481669550068
17492 89 18193278730778484023
19141452 34 18409172095347778133
20511986 3 17677606476055752824
21065198 57 18410859879787367497
21133410 171 17474613707023181762
21133410 52 15968207173144910588
21478907 32 18122630715733824387
22122407 14 16056880238656095776
23559900 14 18413103957450418848
23569914 152 12688971614119482034
335352 9 18409169879197609077
3383291 50 18410860958525467387
397830 11 18129936901754578392
4073 2 18412824690550251328
4403749 210 18130776906947006622
44062 13 18411707599062306415
4616759 239 18059565855252755424
5080951 261 18115289151112561478
5104073 3 18200598111134320568
532947 4 17979925913081481479
5364581 5 18269546303738221248
5385378 56 17907028271012916913
559249 180 18333734602671282441
6669772 16 18126571124620775263
68570916 9 18334012839807394748
9953998 17 18413101750242897456

> <PUBCHEM_SHAPE_MULTIPOLES>
523.63
18.67
4.53
0.88
34.52
5.63
-0.1
-0.21
-4.53
-10.11
0.22
0.67
0.2
0.28

> <PUBCHEM_SHAPE_SELFOVERLAP>
1123.275

> <PUBCHEM_SHAPE_VOLUME>
289.7

> <PUBCHEM_COORDINATE_TYPE>
2
5
10

$$$$
