5330388
  -OEChem-10052115173D

 46 48  0     0  0  0  0  0  0999 V2000
    1.9454   -2.9836   -1.5028 Cl  0  0  0  0  0  0  0  0  0  0  0  0
    6.9049   -1.1148   -0.3837 O   0  0  0  0  0  0  0  0  0  0  0  0
    2.1630    2.7761    0.2719 N   0  0  0  0  0  0  0  0  0  0  0  0
   -0.9963    4.6558    0.5961 N   0  0  0  0  0  0  0  0  0  0  0  0
   -2.1598    0.0823    0.1573 N   0  0  0  0  0  0  0  0  0  0  0  0
   -2.8130   -2.2117    0.2548 N   0  0  0  0  0  0  0  0  0  0  0  0
   -4.6412    0.6867   -1.0019 N   0  0  0  0  0  0  0  0  0  0  0  0
    4.2414    1.4999    0.0607 C   0  0  0  0  0  0  0  0  0  0  0  0
    2.7164    1.4715   -0.0035 C   0  0  0  0  0  0  0  0  0  0  0  0
    4.8676    0.1349   -0.2284 C   0  0  0  0  0  0  0  0  0  0  0  0
    0.8040    3.0470    0.2907 C   0  0  0  0  0  0  0  0  0  0  0  0
    6.3857    0.1812   -0.1199 C   0  0  0  0  0  0  0  0  0  0  0  0
   -0.1475    2.0513    0.0384 C   0  0  0  0  0  0  0  0  0  0  0  0
   -1.5048    2.3527    0.0643 C   0  0  0  0  0  0  0  0  0  0  0  0
    0.3142    4.3251    0.5623 C   0  0  0  0  0  0  0  0  0  0  0  0
   -2.4986    1.3373   -0.1935 C   0  0  0  0  0  0  0  0  0  0  0  0
   -1.8740    3.6584    0.3456 C   0  0  0  0  0  0  0  0  0  0  0  0
   -3.0856   -0.8676   -0.0827 C   0  0  0  0  0  0  0  0  0  0  0  0
   -3.7153    1.6363   -0.7621 C   0  0  0  0  0  0  0  0  0  0  0  0
   -1.6194   -2.9540    0.3177 C   0  0  0  0  0  0  0  0  0  0  0  0
   -4.3044   -0.5706   -0.6520 C   0  0  0  0  0  0  0  0  0  0  0  0
   -0.5518   -2.6388   -0.5258 C   0  0  0  0  0  0  0  0  0  0  0  0
   -1.4979   -4.0088    1.2251 C   0  0  0  0  0  0  0  0  0  0  0  0
    0.6316   -3.3746   -0.4621 C   0  0  0  0  0  0  0  0  0  0  0  0
   -0.3145   -4.7445    1.2886 C   0  0  0  0  0  0  0  0  0  0  0  0
    0.7501   -4.4274    0.4450 C   0  0  0  0  0  0  0  0  0  0  0  0
    4.6239    2.2362   -0.6576 H   0  0  0  0  0  0  0  0  0  0  0  0
    4.5557    1.8431    1.0547 H   0  0  0  0  0  0  0  0  0  0  0  0
    2.3458    0.7440    0.7289 H   0  0  0  0  0  0  0  0  0  0  0  0
    2.4106    1.1372   -1.0023 H   0  0  0  0  0  0  0  0  0  0  0  0
    4.5822   -0.2091   -1.2302 H   0  0  0  0  0  0  0  0  0  0  0  0
    4.4735   -0.6143    0.4697 H   0  0  0  0  0  0  0  0  0  0  0  0
    2.7964    3.5450    0.4621 H   0  0  0  0  0  0  0  0  0  0  0  0
    6.8106    0.8745   -0.8521 H   0  0  0  0  0  0  0  0  0  0  0  0
    6.7091    0.4901    0.8791 H   0  0  0  0  0  0  0  0  0  0  0  0
    0.1721    1.0375   -0.1903 H   0  0  0  0  0  0  0  0  0  0  0  0
    0.9909    5.1498    0.7681 H   0  0  0  0  0  0  0  0  0  0  0  0
   -2.9105    3.9752    0.4067 H   0  0  0  0  0  0  0  0  0  0  0  0
   -4.0079    2.6322   -1.0730 H   0  0  0  0  0  0  0  0  0  0  0  0
    6.5464   -1.7177    0.2899 H   0  0  0  0  0  0  0  0  0  0  0  0
   -3.6136   -2.6879    0.6620 H   0  0  0  0  0  0  0  0  0  0  0  0
   -5.0561   -1.3260   -0.8504 H   0  0  0  0  0  0  0  0  0  0  0  0
   -0.6380   -1.8265   -1.2440 H   0  0  0  0  0  0  0  0  0  0  0  0
   -2.3192   -4.2660    1.8892 H   0  0  0  0  0  0  0  0  0  0  0  0
   -0.2220   -5.5641    1.9952 H   0  0  0  0  0  0  0  0  0  0  0  0
    1.6662   -5.0093    0.5059 H   0  0  0  0  0  0  0  0  0  0  0  0
  1 24  1  0  0  0  0
  2 12  1  0  0  0  0
  2 40  1  0  0  0  0
  3  9  1  0  0  0  0
  3 11  1  0  0  0  0
  3 33  1  0  0  0  0
  4 15  1  0  0  0  0
  4 17  2  0  0  0  0
  5 16  1  0  0  0  0
  5 18  2  0  0  0  0
  6 18  1  0  0  0  0
  6 20  1  0  0  0  0
  6 41  1  0  0  0  0
  7 19  1  0  0  0  0
  7 21  2  0  0  0  0
  8  9  1  0  0  0  0
  8 10  1  0  0  0  0
  8 27  1  0  0  0  0
  8 28  1  0  0  0  0
  9 29  1  0  0  0  0
  9 30  1  0  0  0  0
 10 12  1  0  0  0  0
 10 31  1  0  0  0  0
 10 32  1  0  0  0  0
 11 13  1  0  0  0  0
 11 15  2  0  0  0  0
 12 34  1  0  0  0  0
 12 35  1  0  0  0  0
 13 14  2  0  0  0  0
 13 36  1  0  0  0  0
 14 16  1  0  0  0  0
 14 17  1  0  0  0  0
 15 37  1  0  0  0  0
 16 19  2  0  0  0  0
 17 38  1  0  0  0  0
 18 21  1  0  0  0  0
 19 39  1  0  0  0  0
 20 22  2  0  0  0  0
 20 23  1  0  0  0  0
 21 42  1  0  0  0  0
 22 24  1  0  0  0  0
 22 43  1  0  0  0  0
 23 25  2  0  0  0  0
 23 44  1  0  0  0  0
 24 26  2  0  0  0  0
 25 26  1  0  0  0  0
 25 45  1  0  0  0  0
 26 46  1  0  0  0  0
M  END
> <PUBCHEM_COMPOUND_CID>
5330388

> <PUBCHEM_CONFORMER_RMSD>
1

> <PUBCHEM_CONFORMER_DIVERSEORDER>
1
165
362
50
367
129
295
274
258
126
70
76
302
152
204
312
55
211
291
86
30
100
158
370
56
195
376
263
44
268
172
329
102
197
57
292
9
131
184
308
339
224
90
280
219
120
251
27
3
163
176
159
24
271
248
22
36
21
58
254
162
202
242
47
336
322
53
186
333
267
33
28
59
234
147
306
210
284
366
117
278
199
74
124
146
84
334
223
37
150
354
347
121
285
180
38
26
161
311
64
75
65
226
185
319
252
301
168
359
43
177
368
321
221
371
167
303
2
290
253
105
340
34
203
192
331
139
323
262
316
298
320
239
160
305
309
41
104
266
19
236
35
324
181
88
213
10
171
93
261
296
343
332
206
127
14
245
138
330
157
52
220
79
335
286
325
39
40
68
246
94
369
346
61
5
42
342
92
99
142
337
264
183
66
273
137
62
166
247
87
8
377
67
198
151
328
18
364
365
217
91
97
244
279
374
190
101
360
218
269
256
182
293
118
214
178
77
71
341
95
289
375
255
15
378
96
355
128
11
156
310
233
238
326
154
304
212
240
72
148
140
344
136
373
230
232
189
179
81
300
297
141
237
357
235
112
243
174
200
250
277
45
110
379
260
201
80
78
16
229
288
351
188
241
175
144
361
51
358
109
153
282
348
119
149
299
345
349
85
208
83
111
356
231
275
170
209
60
145
276
338
207
350
69
372
225
352
32
134
249
107
46
318
17
82
187
89
283
155
54
287
143
227
196
317
353
205
113
25
222
193
164
133
257
63
169
49
215
20
108
73
123
315
132
216
106
4
314
265
327
270
23
307
114
13
135
173
7
228
313
48
6
294
29
194
115
259
103
130
272
281
122
363
125
191
12
116
31
98

> <PUBCHEM_MMFF94_PARTIAL_CHARGES>
35
1 -0.18
11 0.1
12 0.28
13 -0.15
15 0.16
16 0.31
17 0.16
18 0.41
19 0.16
2 -0.68
20 0.1
21 0.16
22 -0.15
23 -0.15
24 0.18
25 -0.15
26 -0.15
3 -0.87
33 0.4
36 0.15
37 0.15
38 0.15
39 0.15
4 -0.62
40 0.4
41 0.4
42 0.15
43 0.15
44 0.15
45 0.15
46 0.15
5 -0.62
6 -0.6
7 -0.62
9 0.37

> <PUBCHEM_EFFECTIVE_ROTOR_COUNT>
8

> <PUBCHEM_PHARMACOPHORE_FEATURES>
11
1 2 acceptor
1 2 donor
1 3 cation
1 3 donor
1 4 acceptor
1 6 donor
1 7 acceptor
3 5 6 18 cation
6 20 22 23 24 25 26 rings
6 4 11 13 14 15 17 rings
6 5 7 16 18 19 21 rings

> <PUBCHEM_HEAVY_ATOM_COUNT>
26

> <PUBCHEM_ATOM_DEF_STEREO_COUNT>
0

> <PUBCHEM_ATOM_UDEF_STEREO_COUNT>
0

> <PUBCHEM_BOND_DEF_STEREO_COUNT>
0

> <PUBCHEM_BOND_UDEF_STEREO_COUNT>
0

> <PUBCHEM_ISOTOPIC_ATOM_COUNT>
0

> <PUBCHEM_COMPONENT_COUNT>
1

> <PUBCHEM_CACTVS_TAUTO_COUNT>
2

> <PUBCHEM_CONFORMER_ID>
005155D400000001

> <PUBCHEM_MMFF94_ENERGY>
86.5385

> <PUBCHEM_FEATURE_SELFOVERLAP>
55.821

> <PUBCHEM_SHAPE_FINGERPRINT>
10462674 296 17048796116293321142
10693767 8 17266357538248194207
11756154 5 18337388353151672490
13122387 1 18123471574970649622
13402501 40 18341895212237448406
14251757 5 18264499549692571900
144659 178 18337685148303641428
14647877 51 18055078653937686038
14725015 67 18412258458461139499
14866123 147 18342182133444317265
15320467 1 18410856530282205570
15927050 60 17981607065975859021
16719943 64 18409163299423327090
17627616 140 18047190752813453714
17859628 97 18409727378879209673
19930381 70 18337948970616189443
20531524 4 18197806382692555734
20642791 35 17909556060517386069
23559900 14 18339913934913050872
3027735 51 18269837527625743392
325973 47 18267306607015034582
3298306 158 18337659872072496397
3383291 50 18337665429407327707
373842 8 18265606581993492010
38570 142 16099436548631824071
3882209 13 17118843751040200518
437795 96 18053935440890630912
474144 1 17750774594265608706
5085150 59 18266721516563094826
5265222 85 18334016102959679989
7097593 13 15601748782434265399
7808743 9 16611093142319140475
9709674 26 17762611094541903445

> <PUBCHEM_SHAPE_MULTIPOLES>
506.16
9.51
8.05
0.98
17.28
2.5
0.05
-0.94
2.36
-1.84
-2.59
-0.22
0.77
1.16

> <PUBCHEM_SHAPE_SELFOVERLAP>
1068.428

> <PUBCHEM_SHAPE_VOLUME>
283

> <PUBCHEM_COORDINATE_TYPE>
2
5
10

$$$$
