136027082
  -OEChem-10052120443D

 35 37  0     0  0  0  0  0  0999 V2000
   -2.4421    3.1290    0.7732 F   0  0  0  0  0  0  0  0  0  0  0  0
   -5.7670   -0.2427    0.7971 F   0  0  0  0  0  0  0  0  0  0  0  0
    2.2884   -3.9668    1.3864 O   0  0  0  0  0  0  0  0  0  0  0  0
   -1.0882   -1.9905   -1.1225 N   0  0  0  0  0  0  0  0  0  0  0  0
    0.6190   -2.9623    0.1403 N   0  0  0  0  0  0  0  0  0  0  0  0
    0.8014   -0.7230   -0.5584 N   0  0  0  0  0  0  0  0  0  0  0  0
    4.1701    3.0127   -0.1243 N   0  0  0  0  0  0  0  0  0  0  0  0
   -1.7200   -0.9269   -1.8406 C   0  0  0  0  0  0  0  0  0  0  0  0
   -2.5602   -0.0919   -0.9146 C   0  0  0  0  0  0  0  0  0  0  0  0
    0.1327   -1.8421   -0.5194 C   0  0  0  0  0  0  0  0  0  0  0  0
    2.0205   -0.6783    0.0833 C   0  0  0  0  0  0  0  0  0  0  0  0
   -3.7981   -0.5646   -0.4789 C   0  0  0  0  0  0  0  0  0  0  0  0
   -2.1021    1.1559   -0.4916 C   0  0  0  0  0  0  0  0  0  0  0  0
    2.7650    0.6000    0.0112 C   0  0  0  0  0  0  0  0  0  0  0  0
    2.5731   -1.7148    0.7374 C   0  0  0  0  0  0  0  0  0  0  0  0
    1.8316   -2.9930    0.7976 C   0  0  0  0  0  0  0  0  0  0  0  0
   -2.8818    1.9309    0.3669 C   0  0  0  0  0  0  0  0  0  0  0  0
   -4.5778    0.2104    0.3794 C   0  0  0  0  0  0  0  0  0  0  0  0
   -4.1197    1.4581    0.8024 C   0  0  0  0  0  0  0  0  0  0  0  0
    4.0192    0.6446   -0.5876 C   0  0  0  0  0  0  0  0  0  0  0  0
    2.2126    1.7603    0.5422 C   0  0  0  0  0  0  0  0  0  0  0  0
    4.6748    1.8646   -0.6294 C   0  0  0  0  0  0  0  0  0  0  0  0
    2.9489    2.9303    0.4498 C   0  0  0  0  0  0  0  0  0  0  0  0
   -0.9953   -0.3100   -2.3866 H   0  0  0  0  0  0  0  0  0  0  0  0
   -2.3701   -1.3534   -2.6149 H   0  0  0  0  0  0  0  0  0  0  0  0
   -1.5808   -2.8760   -1.0525 H   0  0  0  0  0  0  0  0  0  0  0  0
   -4.1661   -1.5349   -0.8016 H   0  0  0  0  0  0  0  0  0  0  0  0
   -1.1410    1.5386   -0.8240 H   0  0  0  0  0  0  0  0  0  0  0  0
    0.0536   -3.8060    0.1383 H   0  0  0  0  0  0  0  0  0  0  0  0
    3.5354   -1.6655    1.2346 H   0  0  0  0  0  0  0  0  0  0  0  0
   -4.7269    2.0615    1.4706 H   0  0  0  0  0  0  0  0  0  0  0  0
    4.4840   -0.2359   -1.0193 H   0  0  0  0  0  0  0  0  0  0  0  0
    1.2376    1.7657    1.0188 H   0  0  0  0  0  0  0  0  0  0  0  0
    5.6547    1.9532   -1.0867 H   0  0  0  0  0  0  0  0  0  0  0  0
    2.5627    3.8625    0.8488 H   0  0  0  0  0  0  0  0  0  0  0  0
  1 17  1  0  0  0  0
  2 18  1  0  0  0  0
  3 16  2  0  0  0  0
  4  8  1  0  0  0  0
  4 10  1  0  0  0  0
  4 26  1  0  0  0  0
  5 10  1  0  0  0  0
  5 16  1  0  0  0  0
  5 29  1  0  0  0  0
  6 10  2  0  0  0  0
  6 11  1  0  0  0  0
  7 22  2  0  0  0  0
  7 23  1  0  0  0  0
  8  9  1  0  0  0  0
  8 24  1  0  0  0  0
  8 25  1  0  0  0  0
  9 12  2  0  0  0  0
  9 13  1  0  0  0  0
 11 14  1  0  0  0  0
 11 15  2  0  0  0  0
 12 18  1  0  0  0  0
 12 27  1  0  0  0  0
 13 17  2  0  0  0  0
 13 28  1  0  0  0  0
 14 20  2  0  0  0  0
 14 21  1  0  0  0  0
 15 16  1  0  0  0  0
 15 30  1  0  0  0  0
 17 19  1  0  0  0  0
 18 19  2  0  0  0  0
 19 31  1  0  0  0  0
 20 22  1  0  0  0  0
 20 32  1  0  0  0  0
 21 23  2  0  0  0  0
 21 33  1  0  0  0  0
 22 34  1  0  0  0  0
 23 35  1  0  0  0  0
M  END
> <PUBCHEM_COMPOUND_CID>
136027082

> <PUBCHEM_CONFORMER_RMSD>
0.6

> <PUBCHEM_CONFORMER_DIVERSEORDER>
2
74
34
52
86
22
49
20
60
72
53
85
71
15
84
81
46
73
44
36
37
51
17
30
78
41
56
28
70
50
13
33
47
59
83
62
67
43
57
79
38
29
65
18
45
7
64
66
68
55
12
24
21
8
77
82
16
54
19
35
80
75
11
58
3
31
76
48
27
69
25
40
42
61
10
23
63
32
14
39
9
6
4
5
26
1

> <PUBCHEM_MMFF94_PARTIAL_CHARGES>
33
1 -0.19
10 0.56
11 0.14
12 -0.15
13 -0.15
14 0.03
15 -0.14
16 0.62
17 0.19
18 0.19
19 -0.15
2 -0.19
20 -0.15
21 -0.15
22 0.16
23 0.16
26 0.4
27 0.15
28 0.15
29 0.37
3 -0.57
30 0.15
31 0.15
32 0.15
33 0.15
34 0.15
35 0.15
4 -0.82
5 -0.49
6 -0.62
7 -0.62
8 0.51
9 -0.14

> <PUBCHEM_EFFECTIVE_ROTOR_COUNT>
4

> <PUBCHEM_PHARMACOPHORE_FEATURES>
7
1 3 acceptor
1 4 donor
1 5 donor
1 7 acceptor
6 5 6 10 11 15 16 rings
6 7 14 20 21 22 23 rings
6 9 12 13 17 18 19 rings

> <PUBCHEM_HEAVY_ATOM_COUNT>
23

> <PUBCHEM_ATOM_DEF_STEREO_COUNT>
0

> <PUBCHEM_ATOM_UDEF_STEREO_COUNT>
0

> <PUBCHEM_BOND_DEF_STEREO_COUNT>
0

> <PUBCHEM_BOND_UDEF_STEREO_COUNT>
0

> <PUBCHEM_ISOTOPIC_ATOM_COUNT>
0

> <PUBCHEM_COMPONENT_COUNT>
1

> <PUBCHEM_CACTVS_TAUTO_COUNT>
-1

> <PUBCHEM_CONFORMER_ID>
081B9BCA00000002

> <PUBCHEM_MMFF94_ENERGY>
58.5171

> <PUBCHEM_FEATURE_SELFOVERLAP>
35.565

> <PUBCHEM_SHAPE_FINGERPRINT>
10006869 2 18266731566650573411
10165383 225 18114190761030315350
10366900 7 18114758039910103723
10681291 71 18339366373895094116
10759866 29 18339925922107699473
12293681 160 17401171948347191526
12390115 104 18118977029498167422
12403259 118 18126556830853192313
12549972 3 16301454363856103695
12633257 1 17906741293644263353
12788726 201 17544463615377851746
13533116 47 18261674771277283195
13583140 156 17971747784037857727
13878862 14 18046040715338075533
14251757 17 17273725098981679620
14341114 328 18342742918818000011
14787075 74 18267861877646292431
14849402 71 18334580144688394216
14955137 171 18122907525870260014
15475509 8 18270686360337020102
15842332 3 18128510778395110807
18785283 64 18113898243687872586
20465049 17 18341910566761200038
20510252 161 17758667141995918718
20681677 274 18189054205631963883
20681677 76 18117550739605126789
20739085 24 18040713654531554220
21756936 100 18270960279695649702
21864079 5 18272647896779097389
22182937 141 18121217846864283134
23559900 14 18120930612668874411
23845131 108 18188205519756982547
2637199 183 18341338855079730548
283562 15 17831570251669920078
38570 142 18338252543347383484
392239 28 18265908028182487707
458136 41 18260264161982753670
469060 322 16372960269307969447
474 4 18408598188647473798
5048184 11 18413386553165478805
57091435 65 18338511933291079960
59755656 520 18189615115612653828
633830 44 18341610481780814910
6442390 28 18189341341106558066
7097593 13 18048590422362271011

> <PUBCHEM_SHAPE_MULTIPOLES>
432.99
9.71
4.13
1.14
5.44
1.45
-0.19
-6.2
1.02
-3.93
1.46
0.35
0.44
-1.68

> <PUBCHEM_SHAPE_SELFOVERLAP>
946.962

> <PUBCHEM_SHAPE_VOLUME>
233.3

> <PUBCHEM_COORDINATE_TYPE>
2
5
10

$$$$
