49830535
  -OEChem-10052115183D

 42 44  0     1  0  0  0  0  0999 V2000
   -2.7402    2.1961   -0.3008 S   0  0  0  0  0  0  0  0  0  0  0  0
   -1.8507    3.2401   -0.7763 O   0  0  0  0  0  0  0  0  0  0  0  0
   -3.0481    2.0900    1.1130 O   0  0  0  0  0  0  0  0  0  0  0  0
   -2.2077    0.6701   -0.9057 N   0  0  1  0  0  0  0  0  0  0  0  0
    0.4952   -0.6899    0.2494 N   0  0  0  0  0  0  0  0  0  0  0  0
    4.8394   -0.5192   -1.4433 N   0  0  0  0  0  0  0  0  0  0  0  0
    2.1889    0.5119    1.4265 N   0  0  0  0  0  0  0  0  0  0  0  0
    4.4844    0.6616    0.6288 N   0  0  0  0  0  0  0  0  0  0  0  0
    3.8175    1.7014    2.6144 N   0  0  0  0  0  0  0  0  0  0  0  0
   -1.8224   -1.0240    0.8314 C   0  0  0  0  0  0  0  0  0  0  0  0
   -2.6147   -0.4985   -0.1893 C   0  0  0  0  0  0  0  0  0  0  0  0
   -0.5186   -0.3790    1.2120 C   0  0  0  0  0  0  0  0  0  0  0  0
    1.8247   -0.2453    0.3657 C   0  0  0  0  0  0  0  0  0  0  0  0
   -2.2365   -2.1650    1.5186 C   0  0  0  0  0  0  0  0  0  0  0  0
   -3.8210   -1.1141   -0.5228 C   0  0  0  0  0  0  0  0  0  0  0  0
    2.7739   -0.5764   -0.6004 C   0  0  0  0  0  0  0  0  0  0  0  0
   -2.0161    0.5402   -2.3778 C   0  0  0  0  0  0  0  0  0  0  0  0
    4.0610   -0.0927   -0.4003 C   0  0  0  0  0  0  0  0  0  0  0  0
   -3.4430   -2.7806    1.1850 C   0  0  0  0  0  0  0  0  0  0  0  0
   -4.2354   -2.2552    0.1643 C   0  0  0  0  0  0  0  0  0  0  0  0
   -4.2822    2.3992   -1.1677 C   0  0  0  0  0  0  0  0  0  0  0  0
    2.7942   -1.3181   -1.8092 C   0  0  0  0  0  0  0  0  0  0  0  0
    4.0789   -1.2654   -2.3067 C   0  0  0  0  0  0  0  0  0  0  0  0
    3.4785    0.9129    1.4913 C   0  0  0  0  0  0  0  0  0  0  0  0
   -0.2100   -0.7322    2.2045 H   0  0  0  0  0  0  0  0  0  0  0  0
   -0.6462    0.7050    1.3093 H   0  0  0  0  0  0  0  0  0  0  0  0
    0.2641   -1.2541   -0.5611 H   0  0  0  0  0  0  0  0  0  0  0  0
   -1.6301   -2.5884    2.3149 H   0  0  0  0  0  0  0  0  0  0  0  0
   -4.4529   -0.7242   -1.3158 H   0  0  0  0  0  0  0  0  0  0  0  0
   -1.5198    1.4302   -2.7753 H   0  0  0  0  0  0  0  0  0  0  0  0
   -2.9689    0.3968   -2.8939 H   0  0  0  0  0  0  0  0  0  0  0  0
   -1.3650   -0.3145   -2.5904 H   0  0  0  0  0  0  0  0  0  0  0  0
   -3.7653   -3.6694    1.7196 H   0  0  0  0  0  0  0  0  0  0  0  0
   -5.1744   -2.7350   -0.0957 H   0  0  0  0  0  0  0  0  0  0  0  0
   -4.7110    3.3547   -0.8551 H   0  0  0  0  0  0  0  0  0  0  0  0
   -4.1004    2.4234   -2.2427 H   0  0  0  0  0  0  0  0  0  0  0  0
   -4.9650    1.5946   -0.8949 H   0  0  0  0  0  0  0  0  0  0  0  0
    1.9662   -1.8364   -2.2732 H   0  0  0  0  0  0  0  0  0  0  0  0
    5.8225   -0.3151   -1.5585 H   0  0  0  0  0  0  0  0  0  0  0  0
    4.5186   -1.6921   -3.1971 H   0  0  0  0  0  0  0  0  0  0  0  0
    3.1067    1.9242    3.2973 H   0  0  0  0  0  0  0  0  0  0  0  0
    4.7664    2.0325    2.7206 H   0  0  0  0  0  0  0  0  0  0  0  0
  1  2  2  0  0  0  0
  1  3  2  0  0  0  0
  1  4  1  0  0  0  0
  1 21  1  0  0  0  0
  4 11  1  0  0  0  0
  4 17  1  0  0  0  0
  5 12  1  0  0  0  0
  5 13  1  0  0  0  0
  5 27  1  0  0  0  0
  6 18  1  0  0  0  0
  6 23  1  0  0  0  0
  6 39  1  0  0  0  0
  7 13  2  0  0  0  0
  7 24  1  0  0  0  0
  8 18  1  0  0  0  0
  8 24  2  0  0  0  0
  9 24  1  0  0  0  0
  9 41  1  0  0  0  0
  9 42  1  0  0  0  0
 10 11  1  0  0  0  0
 10 12  1  0  0  0  0
 10 14  2  0  0  0  0
 11 15  2  0  0  0  0
 12 25  1  0  0  0  0
 12 26  1  0  0  0  0
 13 16  1  0  0  0  0
 14 19  1  0  0  0  0
 14 28  1  0  0  0  0
 15 20  1  0  0  0  0
 15 29  1  0  0  0  0
 16 18  2  0  0  0  0
 16 22  1  0  0  0  0
 17 30  1  0  0  0  0
 17 31  1  0  0  0  0
 17 32  1  0  0  0  0
 19 20  2  0  0  0  0
 19 33  1  0  0  0  0
 20 34  1  0  0  0  0
 21 35  1  0  0  0  0
 21 36  1  0  0  0  0
 21 37  1  0  0  0  0
 22 23  2  0  0  0  0
 22 38  1  0  0  0  0
 23 40  1  0  0  0  0
M  END
> <PUBCHEM_COMPOUND_CID>
49830535

> <PUBCHEM_CONFORMER_RMSD>
0.8

> <PUBCHEM_CONFORMER_DIVERSEORDER>
1
79
30
40
36
119
66
107
51
29
15
89
120
52
118
54
113
90
93
25
95
116
18
43
78
111
96
12
24
58
68
117
44
86
112
84
101
85
16
76
8
42
71
62
121
65
14
55
97
88
109
49
20
13
38
63
91
11
81
34
72
87
77
108
98
75
60
73
110
35
48
69
50
100
21
17
92
80
103
57
22
74
10
41
115
61
53
67
102
28
39
64
45
104
46
82
56
47
6
70
33
122
94
59
23
32
105
4
99
37
19
31
106
26
9
5
27
2
114
83
3
7

> <PUBCHEM_MMFF94_PARTIAL_CHARGES>
33
1 1.33
10 -0.14
11 0.2
12 0.51
13 0.41
14 -0.15
15 -0.15
17 0.36
18 0.11
19 -0.15
2 -0.65
20 -0.15
21 0.11
22 -0.15
23 -0.3
24 0.72
27 0.4
28 0.15
29 0.15
3 -0.65
33 0.15
34 0.15
38 0.15
39 0.27
4 -0.69
40 0.15
41 0.4
42 0.4
5 -0.87
6 0.03
7 -0.62
8 -0.57
9 -0.9

> <PUBCHEM_EFFECTIVE_ROTOR_COUNT>
5

> <PUBCHEM_PHARMACOPHORE_FEATURES>
10
1 2 acceptor
1 3 acceptor
1 5 donor
1 6 cation
1 6 donor
1 9 donor
4 7 8 9 24 cation
5 6 16 18 22 23 rings
6 10 11 14 15 19 20 rings
6 7 8 13 16 18 24 rings

> <PUBCHEM_HEAVY_ATOM_COUNT>
24

> <PUBCHEM_ATOM_DEF_STEREO_COUNT>
0

> <PUBCHEM_ATOM_UDEF_STEREO_COUNT>
0

> <PUBCHEM_BOND_DEF_STEREO_COUNT>
0

> <PUBCHEM_BOND_UDEF_STEREO_COUNT>
0

> <PUBCHEM_ISOTOPIC_ATOM_COUNT>
0

> <PUBCHEM_COMPONENT_COUNT>
1

> <PUBCHEM_CACTVS_TAUTO_COUNT>
17

> <PUBCHEM_CONFORMER_ID>
02F85A8700000001

> <PUBCHEM_MMFF94_ENERGY>
69.166

> <PUBCHEM_FEATURE_SELFOVERLAP>
50.881

> <PUBCHEM_SHAPE_FINGERPRINT>
10498660 4 18261107431160592101
11049842 53 17896314710688278186
11370993 144 17703243853163202603
11796584 16 18262807242658746422
12173636 292 18117267061352488685
12236239 1 16226039037437607962
12596599 1 18261117361024786380
12788726 201 17676493890758739139
13583140 156 17917715660549985854
14468879 13 18130493155205041229
14910302 57 18411985771046246894
15806764 133 18272380779841205264
15842332 3 16732698350713529066
15961568 22 18045501074056566132
16752209 62 17967532401969030787
17349148 13 16877931772153503346
1813 80 18120947350183183987
192875 21 15864334891860107966
20600515 1 17534613013210215219
20645477 70 17418095399593365934
20693207 138 18058747895410388878
21033648 29 18201147832683149120
21033650 10 18041576753868543800
21065201 7 18335140890759486842
21756936 100 16082240449002606430
21864079 5 17531261542739101628
22182313 1 18201998850171802592
235170 7 18272933855701625822
23557571 272 18410009970114842169
23559900 14 18337107865753916590
312423 11 16515685541710979618
3268164 11 18260263075113343783
341906 21 18114173151400877880
46194498 28 18199200640714195212
469060 322 17677063407975365521
474 4 13912609419957583062
4921388 177 18337119985834978423
5281201 14 18201726167188325356
57527585 21 18197763595685586093
5895379 119 18114471093535539508
6049 1 18272660055794361634
621550 34 18059009630616816498
6287921 2 17986390199101533732
6913067 236 17914597587117804690
7399639 24 18130217289292140618
7615 1 16588298406342858426

> <PUBCHEM_SHAPE_MULTIPOLES>
456.13
10.32
2.88
2.18
6.64
0.96
-0.17
-0.33
-1.44
-5.09
0.31
2.37
0.21
2.86

> <PUBCHEM_SHAPE_SELFOVERLAP>
970.531

> <PUBCHEM_SHAPE_VOLUME>
256.8

> <PUBCHEM_COORDINATE_TYPE>
2
5
10

$$$$
