24905238
  -OEChem-10052115143D

 36 38  0     0  0  0  0  0  0999 V2000
    3.7625    0.2645    2.2571 F   0  0  0  0  0  0  0  0  0  0  0  0
    5.8745    0.2330   -1.1889 O   0  0  0  0  0  0  0  0  0  0  0  0
   -2.4219    1.0246   -0.0336 N   0  0  0  0  0  0  0  0  0  0  0  0
   -1.1305    1.4034   -0.0556 N   0  0  0  0  0  0  0  0  0  0  0  0
   -3.7585   -0.9940    0.0028 N   0  0  0  0  0  0  0  0  0  0  0  0
   -2.3668   -2.9975   -0.0006 N   0  0  0  0  0  0  0  0  0  0  0  0
    0.0183   -2.9112   -0.0349 N   0  0  0  0  0  0  0  0  0  0  0  0
   -3.4585    2.0295   -0.0268 C   0  0  0  0  0  0  0  0  0  0  0  0
   -2.5932   -0.3278   -0.0198 C   0  0  0  0  0  0  0  0  0  0  0  0
   -1.3217   -0.8740   -0.0337 C   0  0  0  0  0  0  0  0  0  0  0  0
   -0.4656    0.2428   -0.0556 C   0  0  0  0  0  0  0  0  0  0  0  0
   -3.4210    2.8855   -1.2954 C   0  0  0  0  0  0  0  0  0  0  0  0
   -3.3840    2.9068    1.2252 C   0  0  0  0  0  0  0  0  0  0  0  0
    0.9754    0.2429   -0.0768 C   0  0  0  0  0  0  0  0  0  0  0  0
   -1.2295   -2.2618   -0.0234 C   0  0  0  0  0  0  0  0  0  0  0  0
    1.6906    0.2534    1.1208 C   0  0  0  0  0  0  0  0  0  0  0  0
    1.6551    0.2330   -1.2949 C   0  0  0  0  0  0  0  0  0  0  0  0
   -3.5439   -2.3273    0.0108 C   0  0  0  0  0  0  0  0  0  0  0  0
    3.0853    0.2538    1.1002 C   0  0  0  0  0  0  0  0  0  0  0  0
    3.0497    0.2335   -1.3156 C   0  0  0  0  0  0  0  0  0  0  0  0
    3.7648    0.2438   -0.1179 C   0  0  0  0  0  0  0  0  0  0  0  0
    5.2189    0.2431   -0.1433 C   0  0  0  0  0  0  0  0  0  0  0  0
   -4.4217    1.5054   -0.0083 H   0  0  0  0  0  0  0  0  0  0  0  0
   -2.4970    3.4705   -1.3624 H   0  0  0  0  0  0  0  0  0  0  0  0
   -4.2637    3.5846   -1.3147 H   0  0  0  0  0  0  0  0  0  0  0  0
   -3.4828    2.2575   -2.1911 H   0  0  0  0  0  0  0  0  0  0  0  0
   -2.4586    3.4928    1.2551 H   0  0  0  0  0  0  0  0  0  0  0  0
   -3.4192    2.2942    2.1330 H   0  0  0  0  0  0  0  0  0  0  0  0
   -4.2260    3.6064    1.2575 H   0  0  0  0  0  0  0  0  0  0  0  0
    1.1761    0.2610    2.0787 H   0  0  0  0  0  0  0  0  0  0  0  0
    1.1121    0.2242   -2.2371 H   0  0  0  0  0  0  0  0  0  0  0  0
   -4.4343   -2.9466    0.0290 H   0  0  0  0  0  0  0  0  0  0  0  0
    3.5577    0.2252   -2.2763 H   0  0  0  0  0  0  0  0  0  0  0  0
    0.8824   -2.3898   -0.0523 H   0  0  0  0  0  0  0  0  0  0  0  0
    0.0402   -3.9222   -0.0269 H   0  0  0  0  0  0  0  0  0  0  0  0
    5.7340    0.2516    0.8319 H   0  0  0  0  0  0  0  0  0  0  0  0
  1 19  1  0  0  0  0
  2 22  2  0  0  0  0
  3  4  1  0  0  0  0
  3  8  1  0  0  0  0
  3  9  1  0  0  0  0
  4 11  2  0  0  0  0
  5  9  2  0  0  0  0
  5 18  1  0  0  0  0
  6 15  1  0  0  0  0
  6 18  2  0  0  0  0
  7 15  1  0  0  0  0
  7 34  1  0  0  0  0
  7 35  1  0  0  0  0
  8 12  1  0  0  0  0
  8 13  1  0  0  0  0
  8 23  1  0  0  0  0
  9 10  1  0  0  0  0
 10 11  1  0  0  0  0
 10 15  2  0  0  0  0
 11 14  1  0  0  0  0
 12 24  1  0  0  0  0
 12 25  1  0  0  0  0
 12 26  1  0  0  0  0
 13 27  1  0  0  0  0
 13 28  1  0  0  0  0
 13 29  1  0  0  0  0
 14 16  2  0  0  0  0
 14 17  1  0  0  0  0
 16 19  1  0  0  0  0
 16 30  1  0  0  0  0
 17 20  2  0  0  0  0
 17 31  1  0  0  0  0
 18 32  1  0  0  0  0
 19 21  2  0  0  0  0
 20 21  1  0  0  0  0
 20 33  1  0  0  0  0
 21 22  1  0  0  0  0
 22 36  1  0  0  0  0
M  END
> <PUBCHEM_COMPOUND_CID>
24905238

> <PUBCHEM_CONFORMER_RMSD>
0.6

> <PUBCHEM_CONFORMER_DIVERSEORDER>
1
3
8
6
7
2
4
5
9
10

> <PUBCHEM_MMFF94_PARTIAL_CHARGES>
26
1 -0.19
11 0.23
14 0.05
15 0.41
16 -0.15
17 -0.15
18 0.47
19 0.19
2 -0.57
20 -0.15
21 0.09
22 0.42
3 0.31
30 0.15
31 0.15
32 0.15
33 0.15
34 0.4
35 0.4
36 0.06
4 -0.71
5 -0.57
6 -0.62
7 -0.9
8 0.26
9 0.11

> <PUBCHEM_EFFECTIVE_ROTOR_COUNT>
3

> <PUBCHEM_PHARMACOPHORE_FEATURES>
10
1 2 acceptor
1 4 acceptor
1 7 cation
1 7 donor
3 3 5 9 cation
3 5 6 18 cation
3 8 12 13 hydrophobe
5 3 4 9 10 11 rings
6 14 16 17 19 20 21 rings
6 5 6 9 10 15 18 rings

> <PUBCHEM_HEAVY_ATOM_COUNT>
22

> <PUBCHEM_ATOM_DEF_STEREO_COUNT>
0

> <PUBCHEM_ATOM_UDEF_STEREO_COUNT>
0

> <PUBCHEM_BOND_DEF_STEREO_COUNT>
0

> <PUBCHEM_BOND_UDEF_STEREO_COUNT>
0

> <PUBCHEM_ISOTOPIC_ATOM_COUNT>
0

> <PUBCHEM_COMPONENT_COUNT>
1

> <PUBCHEM_CACTVS_TAUTO_COUNT>
5

> <PUBCHEM_CONFORMER_ID>
017C061600000001

> <PUBCHEM_MMFF94_ENERGY>
50.0736

> <PUBCHEM_FEATURE_SELFOVERLAP>
51.025

> <PUBCHEM_SHAPE_FINGERPRINT>
10165383 225 18269004085433571409
10319926 262 18270097094928572816
10411042 1 17978514466327020319
11315181 36 18187366575710827220
11545043 162 18201721760709959952
11582403 64 16982318203329581952
11725454 13 16984859209108447416
12107183 9 18045494210840355698
12236239 1 17676204697456466278
12390115 104 18199763461644751529
12403259 415 17917711322880845296
12500047 106 18412542089891227990
12553582 1 18191864741661775411
12788726 201 18191036792204663075
13140716 1 18122631810660360843
13583140 156 17917700310658538214
13878862 14 16968297012769596777
14178342 30 18409442566217057507
14294032 229 18335419003510463301
14508225 48 18267294529756935285
15042514 8 18193564582670579219
16752209 62 18336819879216583339
16945 1 18410575123961564215
17844677 252 18341057410490005384
19049666 15 17917157108463629394
200 152 16588016961262081254
20510252 161 18343302608595786313
20645477 56 18411987931678235445
20871999 31 18411141359396032092
21033648 29 17417801855879788720
21065201 7 18412823603681101306
21279426 13 18200042716461136502
2297311 6 18341060725518812814
23175994 123 17060068072523256784
23402539 116 18340766043850022231
23493267 7 18272089370699876760
23557571 272 18201728357252660684
23559900 14 18200600190388809726
23598291 2 17604136052668172058
2748010 2 18193568761852489287
283562 15 18411418440890549115
4214541 1 18410859867234300980
469060 322 18336563676550045169
5104073 3 18410009910607734538
5265222 85 18199201749306472326
559249 180 18335981966079494190
573450 72 18260822705262461650
57527295 17 17059209233313685501
59755656 215 18343023276839755655
59755656 520 18059021558168466697
602551 16 18412262878557675498
6049 1 17988358294807978784
6327066 14 18042400232148981877
7615 1 17894909667607573116
77492 1 17676202498406752426
7808743 9 18337395950416835468
81228 2 18338521958034678259
84936 182 17624127201254587689
9862522 239 17823407202635690069

> <PUBCHEM_SHAPE_MULTIPOLES>
414.7
9.46
3.02
1.25
10.36
0.83
-0.26
-3.07
0.66
-5.71
0.04
1.06
-0.59
0.02

> <PUBCHEM_SHAPE_SELFOVERLAP>
912.329

> <PUBCHEM_SHAPE_VOLUME>
224.4

> <PUBCHEM_COORDINATE_TYPE>
2
5
10

$$$$
