135741685
  -OEChem-10052120443D

 20 21  0     0  0  0  0  0  0999 V2000
    2.8143   -1.5803   -0.0824 S   0  0  0  0  0  0  0  0  0  0  0  0
   -0.5537    1.9536    0.1294 O   0  0  0  0  0  0  0  0  0  0  0  0
   -3.1487    0.9113   -1.0233 O   0  0  0  0  0  0  0  0  0  0  0  0
   -3.6680   -0.2337    0.8870 O   0  0  0  0  0  0  0  0  0  0  0  0
    0.1206   -2.0726   -0.0984 N   0  0  0  0  0  0  0  0  0  0  0  0
    3.3400   -0.0021    0.0015 N   0  0  0  0  0  0  0  0  0  0  0  0
    0.9929    0.1589    0.0216 C   0  0  0  0  0  0  0  0  0  0  0  0
    1.1592   -1.2117   -0.0554 C   0  0  0  0  0  0  0  0  0  0  0  0
    2.2694    0.7908    0.0508 C   0  0  0  0  0  0  0  0  0  0  0  0
   -0.3413    0.7497    0.0607 C   0  0  0  0  0  0  0  0  0  0  0  0
   -1.4591   -0.2601    0.0092 C   0  0  0  0  0  0  0  0  0  0  0  0
   -1.1625   -1.5716   -0.0652 C   0  0  0  0  0  0  0  0  0  0  0  0
    2.5096    2.2485    0.1301 C   0  0  0  0  0  0  0  0  0  0  0  0
   -2.8726    0.1194    0.0344 C   0  0  0  0  0  0  0  0  0  0  0  0
    0.2309   -3.0787   -0.1549 H   0  0  0  0  0  0  0  0  0  0  0  0
   -1.9173   -2.3486   -0.1071 H   0  0  0  0  0  0  0  0  0  0  0  0
    2.0709    2.6608    1.0447 H   0  0  0  0  0  0  0  0  0  0  0  0
    3.5783    2.4889    0.1380 H   0  0  0  0  0  0  0  0  0  0  0  0
    2.0621    2.7586   -0.7292 H   0  0  0  0  0  0  0  0  0  0  0  0
   -2.4078    1.0992   -1.6391 H   0  0  0  0  0  0  0  0  0  0  0  0
  1  6  1  0  0  0  0
  1  8  1  0  0  0  0
  2 10  2  0  0  0  0
  3 14  1  0  0  0  0
  3 20  1  0  0  0  0
  4 14  2  0  0  0  0
  5  8  1  0  0  0  0
  5 12  1  0  0  0  0
  5 15  1  0  0  0  0
  6  9  2  0  0  0  0
  7  8  2  0  0  0  0
  7  9  1  0  0  0  0
  7 10  1  0  0  0  0
  9 13  1  0  0  0  0
 10 11  1  0  0  0  0
 11 12  2  0  0  0  0
 11 14  1  0  0  0  0
 12 16  1  0  0  0  0
 13 17  1  0  0  0  0
 13 18  1  0  0  0  0
 13 19  1  0  0  0  0
M  END
> <PUBCHEM_COMPOUND_CID>
135741685

> <PUBCHEM_CONFORMER_RMSD>
0.4

> <PUBCHEM_CONFORMER_DIVERSEORDER>
1
2
3

> <PUBCHEM_MMFF94_PARTIAL_CHARGES>
17
1 0.18
10 0.64
11 0.03
12 -0.05
13 0.18
14 0.71
15 0.4
16 0.15
2 -0.57
20 0.5
3 -0.65
4 -0.57
5 -0.58
6 -0.51
7 -0.09
8 0.12
9 0.11

> <PUBCHEM_EFFECTIVE_ROTOR_COUNT>
1

> <PUBCHEM_PHARMACOPHORE_FEATURES>
9
1 2 acceptor
1 3 acceptor
1 4 acceptor
1 5 cation
1 5 donor
1 6 acceptor
3 3 4 14 anion
5 1 6 7 8 9 rings
6 5 7 8 10 11 12 rings

> <PUBCHEM_HEAVY_ATOM_COUNT>
14

> <PUBCHEM_ATOM_DEF_STEREO_COUNT>
0

> <PUBCHEM_ATOM_UDEF_STEREO_COUNT>
0

> <PUBCHEM_BOND_DEF_STEREO_COUNT>
0

> <PUBCHEM_BOND_UDEF_STEREO_COUNT>
0

> <PUBCHEM_ISOTOPIC_ATOM_COUNT>
0

> <PUBCHEM_COMPONENT_COUNT>
1

> <PUBCHEM_CACTVS_TAUTO_COUNT>
-1

> <PUBCHEM_CONFORMER_ID>
081740F500000001

> <PUBCHEM_MMFF94_ENERGY>
30.025

> <PUBCHEM_FEATURE_SELFOVERLAP>
45.788

> <PUBCHEM_SHAPE_FINGERPRINT>
10219947 1 18410859862754502859
10608611 8 18335135393048295517
10967382 1 18411419531352968440
10980938 120 18338516442800849872
11132069 177 18343291587524997250
11206711 2 18193843630499430092
11471102 20 18339075999840864221
12032990 46 18409175385060527227
12382932 28 18339920545003726392
12524768 44 18411420626443112886
13140716 1 18339641251955129538
13380535 21 18266187308108987306
13380535 76 18340482369892201514
13897977 150 18340484581452114888
14325111 11 18410574011095334721
15219456 202 18334293150045750989
15775835 57 18339930423460213860
16945 1 18340768148162405198
17844478 74 18041005033459937605
18186145 218 18272092698956626612
193761 8 17762900265651329779
20201158 50 18410290268212530415
20645477 70 18341043026428123703
20715346 28 18113900472411454053
21501502 16 18268988876626925646
2334 1 18195806503673835582
23402539 116 18271512105678584110
23402655 69 18195509425819579949
23463225 33 18410012134857519594
23493267 7 17604147030335646169
23552423 10 18335982085947928590
23559900 14 18128828628610361276
2748010 2 18267589185460898982
5084963 1 17987795207425984250
528886 8 18412821408493883618
53812653 166 18199749322253483088
63268167 104 18342739628324249763
7364860 26 18343585153335695464

> <PUBCHEM_SHAPE_MULTIPOLES>
264.39
5.27
2.14
0.7
1.9
0.21
0.02
0.58
-0.13
-1.23
0.03
0.31
0.03
0.27

> <PUBCHEM_SHAPE_SELFOVERLAP>
565.484

> <PUBCHEM_SHAPE_VOLUME>
149

> <PUBCHEM_COORDINATE_TYPE>
2
5
10

$$$$
