24905311
  -OEChem-10052115163D

 42 45  0     1  0  0  0  0  0999 V2000
   -5.3525    1.0333    0.0943 O   0  0  0  0  0  0  0  0  0  0  0  0
   -4.0053    0.7529   -2.3204 O   0  0  0  0  0  0  0  0  0  0  0  0
    2.1899    0.1894    0.0422 N   0  0  0  0  0  0  0  0  0  0  0  0
    4.3859    3.0376   -0.6707 N   0  0  0  0  0  0  0  0  0  0  0  0
    1.0082    0.8339    0.0518 N   0  0  0  0  0  0  0  0  0  0  0  0
    3.0674   -2.0671    0.0237 N   0  0  0  0  0  0  0  0  0  0  0  0
    1.2820   -3.7293    0.0211 N   0  0  0  0  0  0  0  0  0  0  0  0
   -1.0305   -3.1382    0.0343 N   0  0  0  0  0  0  0  0  0  0  0  0
    3.4735    0.9867    0.0414 C   0  0  2  0  0  0  0  0  0  0  0  0
    3.6577    1.9135    1.2538 C   0  0  0  0  0  0  0  0  0  0  0  0
    3.6035    1.9099   -1.1741 C   0  0  0  0  0  0  0  0  0  0  0  0
    3.8487    3.3011    0.6615 C   0  0  0  0  0  0  0  0  0  0  0  0
    2.0700   -1.1686    0.0341 C   0  0  0  0  0  0  0  0  0  0  0  0
    0.7115   -1.4321    0.0386 C   0  0  0  0  0  0  0  0  0  0  0  0
    0.1119   -0.1590    0.0495 C   0  0  0  0  0  0  0  0  0  0  0  0
   -1.2962    0.1473    0.0581 C   0  0  0  0  0  0  0  0  0  0  0  0
    0.3267   -2.7687    0.0316 C   0  0  0  0  0  0  0  0  0  0  0  0
   -1.9829    0.3042   -1.1460 C   0  0  0  0  0  0  0  0  0  0  0  0
   -1.9725    0.2880    1.2699 C   0  0  0  0  0  0  0  0  0  0  0  0
    2.5745   -3.3246    0.0178 C   0  0  0  0  0  0  0  0  0  0  0  0
   -3.3457    0.6014   -1.1382 C   0  0  0  0  0  0  0  0  0  0  0  0
   -3.3352    0.5856    1.2777 C   0  0  0  0  0  0  0  0  0  0  0  0
   -4.0220    0.7422    0.0737 C   0  0  0  0  0  0  0  0  0  0  0  0
   -5.9685    1.1604    1.3744 C   0  0  0  0  0  0  0  0  0  0  0  0
    4.2803    0.2430    0.0364 H   0  0  0  0  0  0  0  0  0  0  0  0
    4.5593    1.6136    1.8021 H   0  0  0  0  0  0  0  0  0  0  0  0
    2.8182    1.8874    1.9558 H   0  0  0  0  0  0  0  0  0  0  0  0
    4.1162    1.4121   -2.0030 H   0  0  0  0  0  0  0  0  0  0  0  0
    2.6313    2.2595   -1.5407 H   0  0  0  0  0  0  0  0  0  0  0  0
    2.8875    3.8235    0.5885 H   0  0  0  0  0  0  0  0  0  0  0  0
    4.5302    3.9123    1.2597 H   0  0  0  0  0  0  0  0  0  0  0  0
    4.2744    3.8513   -1.2729 H   0  0  0  0  0  0  0  0  0  0  0  0
   -1.4573    0.1947   -2.0926 H   0  0  0  0  0  0  0  0  0  0  0  0
   -1.4507    0.1684    2.2167 H   0  0  0  0  0  0  0  0  0  0  0  0
    3.3132   -4.1188    0.0091 H   0  0  0  0  0  0  0  0  0  0  0  0
   -1.7643   -2.4452    0.0424 H   0  0  0  0  0  0  0  0  0  0  0  0
   -1.2666   -4.1215    0.0291 H   0  0  0  0  0  0  0  0  0  0  0  0
   -3.7947    0.6803    2.2555 H   0  0  0  0  0  0  0  0  0  0  0  0
   -3.3789    0.6202   -3.0525 H   0  0  0  0  0  0  0  0  0  0  0  0
   -7.0247    1.3923    1.2022 H   0  0  0  0  0  0  0  0  0  0  0  0
   -5.5483    1.9969    1.9433 H   0  0  0  0  0  0  0  0  0  0  0  0
   -5.9369    0.2187    1.9329 H   0  0  0  0  0  0  0  0  0  0  0  0
  1 23  1  0  0  0  0
  1 24  1  0  0  0  0
  2 21  1  0  0  0  0
  2 39  1  0  0  0  0
  3  5  1  0  0  0  0
  3  9  1  0  0  0  0
  3 13  1  0  0  0  0
  4 11  1  0  0  0  0
  4 12  1  0  0  0  0
  4 32  1  0  0  0  0
  5 15  2  0  0  0  0
  6 13  2  0  0  0  0
  6 20  1  0  0  0  0
  7 17  1  0  0  0  0
  7 20  2  0  0  0  0
  8 17  1  0  0  0  0
  8 36  1  0  0  0  0
  8 37  1  0  0  0  0
  9 10  1  0  0  0  0
  9 11  1  0  0  0  0
  9 25  1  0  0  0  0
 10 12  1  0  0  0  0
 10 26  1  0  0  0  0
 10 27  1  0  0  0  0
 11 28  1  0  0  0  0
 11 29  1  0  0  0  0
 12 30  1  0  0  0  0
 12 31  1  0  0  0  0
 13 14  1  0  0  0  0
 14 15  1  0  0  0  0
 14 17  2  0  0  0  0
 15 16  1  0  0  0  0
 16 18  2  0  0  0  0
 16 19  1  0  0  0  0
 18 21  1  0  0  0  0
 18 33  1  0  0  0  0
 19 22  2  0  0  0  0
 19 34  1  0  0  0  0
 20 35  1  0  0  0  0
 21 23  2  0  0  0  0
 22 23  1  0  0  0  0
 22 38  1  0  0  0  0
 24 40  1  0  0  0  0
 24 41  1  0  0  0  0
 24 42  1  0  0  0  0
M  END
> <PUBCHEM_COMPOUND_CID>
24905311

> <PUBCHEM_CONFORMER_RMSD>
0.8

> <PUBCHEM_CONFORMER_DIVERSEORDER>
2
3
9
6
7
10
4
1
5
8

> <PUBCHEM_MMFF94_PARTIAL_CHARGES>
30
1 -0.36
11 0.27
12 0.27
13 0.11
15 0.23
16 0.05
17 0.41
18 -0.15
19 -0.15
2 -0.53
20 0.47
21 0.08
22 -0.15
23 0.08
24 0.28
3 0.31
32 0.36
33 0.15
34 0.15
35 0.15
36 0.4
37 0.4
38 0.15
39 0.45
4 -0.9
5 -0.71
6 -0.57
7 -0.62
8 -0.9
9 0.26

> <PUBCHEM_EFFECTIVE_ROTOR_COUNT>
4

> <PUBCHEM_PHARMACOPHORE_FEATURES>
13
1 1 acceptor
1 2 donor
1 4 cation
1 4 donor
1 5 acceptor
1 8 cation
1 8 donor
3 3 6 13 cation
3 6 7 20 cation
5 3 5 13 14 15 rings
5 4 9 10 11 12 rings
6 16 18 19 21 22 23 rings
6 6 7 13 14 17 20 rings

> <PUBCHEM_HEAVY_ATOM_COUNT>
24

> <PUBCHEM_ATOM_DEF_STEREO_COUNT>
1

> <PUBCHEM_ATOM_UDEF_STEREO_COUNT>
0

> <PUBCHEM_BOND_DEF_STEREO_COUNT>
0

> <PUBCHEM_BOND_UDEF_STEREO_COUNT>
0

> <PUBCHEM_ISOTOPIC_ATOM_COUNT>
0

> <PUBCHEM_COMPONENT_COUNT>
1

> <PUBCHEM_CACTVS_TAUTO_COUNT>
15

> <PUBCHEM_CONFORMER_ID>
017C065F00000002

> <PUBCHEM_MMFF94_ENERGY>
67.3196

> <PUBCHEM_FEATURE_SELFOVERLAP>
66.252

> <PUBCHEM_SHAPE_FINGERPRINT>
10165383 225 18263097616385279500
10411042 1 17762342414178361250
10554248 39 17630041552316804861
1100329 8 18411699872938945754
11582403 64 17099419580580108485
11725454 13 17170640433321191213
12035758 1 18262784187215714642
12236239 1 17559949931648809331
12390115 104 18123765398200103208
12403259 415 17895478025336081789
12616971 3 18059569127833068173
12730499 353 18337403698542384993
12788726 201 17620459647192055878
13134695 92 17975128747664855766
13140716 1 18409164437600502626
13631057 29 18055904644778337495
13878862 14 18193262006656797629
13911987 19 18263924508842593661
13955234 65 18337676312695933915
13965767 371 18116416206983389160
14790565 3 18049453826589217321
15342168 16 18409453617400323949
15842332 3 17846492578958077549
16752209 62 17906720755184591082
17913733 40 18340502143789523995
17980427 23 18057293194804531042
1813 80 17626677003036960222
18785283 64 18334576806908253954
19784866 34 18342174517876171704
1979834 28 18114190743560964701
204376 136 18337390542767556081
20510252 161 17765999776593703002
20645477 70 18262520282243355779
21049683 271 18116730512747905766
21065201 7 16226618360217408987
22079108 93 18270687588095955417
22122407 14 18056499270163293489
2255824 54 18270399382652563446
22907989 373 17545598319851282388
23559900 14 18337953376851981755
23845131 108 18336549420957834851
283562 15 17834668675426189962
3178227 256 18336556997375032042
38570 142 18129685061145173220
4340502 62 18412270553674659715
458136 41 18410295813178755430
469060 322 17900829558876986619
474 4 18413669114815979088
495365 180 18410292497485043744
5104073 3 18335426751272126443
59755656 520 18339364183788807780
6034566 193 18045226191321554349
621550 34 18187367597707399741
633830 44 18202570595986397372
7399639 24 18113616768710869789
7808743 9 17903079168452971396
81228 2 17544481211964085770
8272917 22 18340774732399770663
84936 182 18272928310925493688
9999458 23 18336272240964153286

> <PUBCHEM_SHAPE_MULTIPOLES>
452.28
10.08
3.96
1.28
9.42
2.91
-0.33
-9.23
0.84
-6.02
0.26
1.26
-0.7
-0.19

> <PUBCHEM_SHAPE_SELFOVERLAP>
997.383

> <PUBCHEM_SHAPE_VOLUME>
244.2

> <PUBCHEM_COORDINATE_TYPE>
2
5
10

$$$$
