11624601
  -OEChem-10052120443D

 46 47  0     0  0  0  0  0  0999 V2000
   -2.7526   -2.0259    1.5083 O   0  0  0  0  0  0  0  0  0  0  0  0
   -6.1998    1.3023   -1.2182 O   0  0  0  0  0  0  0  0  0  0  0  0
    5.0930   -1.0623   -0.2961 O   0  0  0  0  0  0  0  0  0  0  0  0
   -1.0294    1.1454   -0.3114 O   0  0  0  0  0  0  0  0  0  0  0  0
    0.4553   -0.6387   -0.6658 N   0  0  0  0  0  0  0  0  0  0  0  0
    2.8029   -0.8513   -0.4782 N   0  0  0  0  0  0  0  0  0  0  0  0
    3.0099    3.1821    0.7043 N   0  0  0  0  0  0  0  0  0  0  0  0
    6.4453    2.0577    0.7462 N   0  0  0  0  0  0  0  0  0  0  0  0
   -3.2261   -0.6701   -0.4107 C   0  0  0  0  0  0  0  0  0  0  0  0
   -1.8982   -0.9904   -1.0129 C   0  0  0  0  0  0  0  0  0  0  0  0
   -3.5951   -1.2014    0.8251 C   0  0  0  0  0  0  0  0  0  0  0  0
   -4.1015    0.1712   -1.0975 C   0  0  0  0  0  0  0  0  0  0  0  0
   -0.7903   -0.0177   -0.6197 C   0  0  0  0  0  0  0  0  0  0  0  0
   -5.3459    0.4811   -0.5486 C   0  0  0  0  0  0  0  0  0  0  0  0
   -4.8395   -0.8917    1.3739 C   0  0  0  0  0  0  0  0  0  0  0  0
    1.7156   -0.0675   -0.3686 C   0  0  0  0  0  0  0  0  0  0  0  0
   -5.7148   -0.0504    0.6870 C   0  0  0  0  0  0  0  0  0  0  0  0
    1.7267    1.2570    0.0138 C   0  0  0  0  0  0  0  0  0  0  0  0
    2.9605    1.8263    0.3089 C   0  0  0  0  0  0  0  0  0  0  0  0
    3.9841   -0.2633   -0.1835 C   0  0  0  0  0  0  0  0  0  0  0  0
    4.1155    1.0585    0.2108 C   0  0  0  0  0  0  0  0  0  0  0  0
    4.8734   -2.4061   -0.7061 C   0  0  0  0  0  0  0  0  0  0  0  0
   -1.8420   -1.4121    2.4180 C   0  0  0  0  0  0  0  0  0  0  0  0
   -7.4556    1.5776   -0.5991 C   0  0  0  0  0  0  0  0  0  0  0  0
    6.2053   -3.1210   -0.7867 C   0  0  0  0  0  0  0  0  0  0  0  0
    5.4032    1.6108    0.5067 C   0  0  0  0  0  0  0  0  0  0  0  0
   -1.9682   -0.9724   -2.1087 H   0  0  0  0  0  0  0  0  0  0  0  0
   -1.6112   -2.0182   -0.7584 H   0  0  0  0  0  0  0  0  0  0  0  0
   -3.8205    0.5914   -2.0602 H   0  0  0  0  0  0  0  0  0  0  0  0
   -5.1330   -1.3034    2.3359 H   0  0  0  0  0  0  0  0  0  0  0  0
    0.4997   -1.6150   -0.9469 H   0  0  0  0  0  0  0  0  0  0  0  0
   -6.6649    0.1485    1.1708 H   0  0  0  0  0  0  0  0  0  0  0  0
    0.8699    1.9022    0.1089 H   0  0  0  0  0  0  0  0  0  0  0  0
    4.3991   -2.4291   -1.6947 H   0  0  0  0  0  0  0  0  0  0  0  0
    4.2350   -2.9240    0.0198 H   0  0  0  0  0  0  0  0  0  0  0  0
   -0.9517   -2.0425    2.4921 H   0  0  0  0  0  0  0  0  0  0  0  0
   -1.5398   -0.4115    2.0942 H   0  0  0  0  0  0  0  0  0  0  0  0
   -2.3097   -1.3472    3.4051 H   0  0  0  0  0  0  0  0  0  0  0  0
    2.1550    3.7191    0.7673 H   0  0  0  0  0  0  0  0  0  0  0  0
    3.8909    3.6257    0.9248 H   0  0  0  0  0  0  0  0  0  0  0  0
   -7.3283    2.1100    0.3497 H   0  0  0  0  0  0  0  0  0  0  0  0
   -8.0572    0.6692   -0.4880 H   0  0  0  0  0  0  0  0  0  0  0  0
   -8.0066    2.2458   -1.2690 H   0  0  0  0  0  0  0  0  0  0  0  0
    6.0735   -4.1605   -1.1000 H   0  0  0  0  0  0  0  0  0  0  0  0
    6.8700   -2.6193   -1.4978 H   0  0  0  0  0  0  0  0  0  0  0  0
    6.7103   -3.1063    0.1849 H   0  0  0  0  0  0  0  0  0  0  0  0
  1 11  1  0  0  0  0
  1 23  1  0  0  0  0
  2 14  1  0  0  0  0
  2 24  1  0  0  0  0
  3 20  1  0  0  0  0
  3 22  1  0  0  0  0
  4 13  2  0  0  0  0
  5 13  1  0  0  0  0
  5 16  1  0  0  0  0
  5 31  1  0  0  0  0
  6 16  2  0  0  0  0
  6 20  1  0  0  0  0
  7 19  1  0  0  0  0
  7 39  1  0  0  0  0
  7 40  1  0  0  0  0
  8 26  3  0  0  0  0
  9 10  1  0  0  0  0
  9 11  2  0  0  0  0
  9 12  1  0  0  0  0
 10 13  1  0  0  0  0
 10 27  1  0  0  0  0
 10 28  1  0  0  0  0
 11 15  1  0  0  0  0
 12 14  2  0  0  0  0
 12 29  1  0  0  0  0
 14 17  1  0  0  0  0
 15 17  2  0  0  0  0
 15 30  1  0  0  0  0
 16 18  1  0  0  0  0
 17 32  1  0  0  0  0
 18 19  2  0  0  0  0
 18 33  1  0  0  0  0
 19 21  1  0  0  0  0
 20 21  2  0  0  0  0
 21 26  1  0  0  0  0
 22 25  1  0  0  0  0
 22 34  1  0  0  0  0
 22 35  1  0  0  0  0
 23 36  1  0  0  0  0
 23 37  1  0  0  0  0
 23 38  1  0  0  0  0
 24 41  1  0  0  0  0
 24 42  1  0  0  0  0
 24 43  1  0  0  0  0
 25 44  1  0  0  0  0
 25 45  1  0  0  0  0
 25 46  1  0  0  0  0
M  END
> <PUBCHEM_COMPOUND_CID>
11624601

> <PUBCHEM_CONFORMER_RMSD>
0.8

> <PUBCHEM_CONFORMER_DIVERSEORDER>
1
136
103
113
130
36
80
62
140
100
135
10
83
105
116
132
110
13
76
68
123
78
112
93
71
41
33
94
47
60
53
108
104
106
89
137
117
122
58
111
102
74
35
139
15
86
88
87
133
95
28
70
43
56
69
45
51
64
127
90
115
39
42
26
46
138
72
84
125
25
79
118
120
11
91
128
77
73
14
49
97
119
54
23
96
131
38
59
85
37
52
48
17
66
12
99
98
16
121
63
134
109
57
21
75
126
29
20
81
8
24
31
40
34
7
30
4
55
67
107
18
61
114
124
129
44
141
3
32
92
5
65
19
101
27
82
22
9
2
50
6

> <PUBCHEM_MMFF94_PARTIAL_CHARGES>
32
1 -0.36
10 0.2
11 0.08
12 -0.15
13 0.57
14 0.08
15 -0.15
16 0.43
17 -0.15
18 -0.15
19 0.1
2 -0.36
20 0.39
21 0.07
22 0.28
23 0.28
24 0.28
26 0.48
29 0.15
3 -0.36
30 0.15
31 0.37
32 0.15
33 0.15
39 0.4
4 -0.57
40 0.4
5 -0.55
6 -0.62
7 -0.9
8 -0.56
9 -0.14

> <PUBCHEM_EFFECTIVE_ROTOR_COUNT>
8

> <PUBCHEM_PHARMACOPHORE_FEATURES>
10
1 1 acceptor
1 2 acceptor
1 3 acceptor
1 4 acceptor
1 5 donor
1 7 cation
1 7 donor
1 8 acceptor
6 6 16 18 19 20 21 rings
6 9 11 12 14 15 17 rings

> <PUBCHEM_HEAVY_ATOM_COUNT>
26

> <PUBCHEM_ATOM_DEF_STEREO_COUNT>
0

> <PUBCHEM_ATOM_UDEF_STEREO_COUNT>
0

> <PUBCHEM_BOND_DEF_STEREO_COUNT>
0

> <PUBCHEM_BOND_UDEF_STEREO_COUNT>
0

> <PUBCHEM_ISOTOPIC_ATOM_COUNT>
0

> <PUBCHEM_COMPONENT_COUNT>
1

> <PUBCHEM_CACTVS_TAUTO_COUNT>
13

> <PUBCHEM_CONFORMER_ID>
00B1609900000001

> <PUBCHEM_MMFF94_ENERGY>
102.1529

> <PUBCHEM_FEATURE_SELFOVERLAP>
50.748

> <PUBCHEM_SHAPE_FINGERPRINT>
10319926 262 17749115508639436011
10411042 1 18055353536487626958
10835480 77 18410289237484066125
11045977 3 18333734619518829215
11089746 13 16558752368457164712
11370993 144 18409451414076488511
11796584 16 17967533489028234650
12236239 1 17132119064763855878
12616971 3 17275116032898909803
13533116 47 18060135427845331506
13544592 145 18187370925711182546
13726171 33 15214458640511753846
13914758 101 17703231690105736483
14341114 176 18409733962663199844
15183329 4 17489871531186057317
15348495 7 18187929546590575817
15361156 5 18260554449804769942
1577012 14 17060346223269068105
20511986 3 17560224920765791814
21033648 29 18337099180855498449
21150785 3 13182740385456278312
21279426 13 18261109638979114003
23081809 10 16702306741204458935
23559900 14 18113622295695391862
2838139 119 18200876180824574025
4015057 19 18342448296840914065
4073 2 18188209909139212154
5265222 85 17386591131435585262
5385378 56 17531804629275406809
59755656 215 18041561317350270399
602551 16 16950564449474702674
6698420 124 18337118857144868425
7226269 152 18260824917355898017

> <PUBCHEM_SHAPE_MULTIPOLES>
491.67
18.32
2.69
1.35
4.7
0.04
0.63
-2.11
-1.67
-5.09
0.26
1.49
0.54
3.36

> <PUBCHEM_SHAPE_SELFOVERLAP>
1038.818

> <PUBCHEM_SHAPE_VOLUME>
273.3

> <PUBCHEM_COORDINATE_TYPE>
2
5
10

$$$$
