49830618
  -OEChem-10052115193D

 63 66  0     0  0  0  0  0  0999 V2000
    2.7038   -4.8505   -1.2142 F   0  0  0  0  0  0  0  0  0  0  0  0
    5.9302   -1.2480    0.8113 O   0  0  0  0  0  0  0  0  0  0  0  0
   -4.8613   -0.1962    0.4364 O   0  0  0  0  0  0  0  0  0  0  0  0
    3.8995    1.5591    0.2229 N   0  0  0  0  0  0  0  0  0  0  0  0
   -1.7582    1.3400   -0.4923 N   0  0  0  0  0  0  0  0  0  0  0  0
    1.6705    1.1382   -0.2789 N   0  0  0  0  0  0  0  0  0  0  0  0
   -2.1982   -0.8330   -0.2189 N   0  0  0  0  0  0  0  0  0  0  0  0
    3.0285    2.5352   -1.6971 N   0  0  0  0  0  0  0  0  0  0  0  0
   -4.3818    2.0647    0.1447 N   0  0  0  0  0  0  0  0  0  0  0  0
    5.2179    0.6818    2.1344 C   0  0  0  0  0  0  0  0  0  0  0  0
    3.8468    0.7500    1.4191 C   0  0  0  0  0  0  0  0  0  0  0  0
    6.3065    0.0565    1.2338 C   0  0  0  0  0  0  0  0  0  0  0  0
    5.6747    2.0880    2.5653 C   0  0  0  0  0  0  0  0  0  0  0  0
    5.0461   -0.1827    3.4009 C   0  0  0  0  0  0  0  0  0  0  0  0
   -0.5858    0.6898   -0.7531 C   0  0  0  0  0  0  0  0  0  0  0  0
    2.8188    1.7527   -0.6214 C   0  0  0  0  0  0  0  0  0  0  0  0
   -0.8822   -0.6468   -0.5783 C   0  0  0  0  0  0  0  0  0  0  0  0
   -2.6903    0.3815   -0.1778 C   0  0  0  0  0  0  0  0  0  0  0  0
    0.6389    1.3481   -1.1227 C   0  0  0  0  0  0  0  0  0  0  0  0
   -7.0519   -0.9792    1.0888 C   0  0  0  0  0  0  0  0  0  0  0  0
   -4.0177    0.8148    0.1396 C   0  0  0  0  0  0  0  0  0  0  0  0
   -6.1770    0.2312    0.7511 C   0  0  0  0  0  0  0  0  0  0  0  0
    0.0415   -1.7296   -0.7421 C   0  0  0  0  0  0  0  0  0  0  0  0
   -2.1207    2.6765   -0.4941 C   0  0  0  0  0  0  0  0  0  0  0  0
    0.7235    2.1281   -2.2580 C   0  0  0  0  0  0  0  0  0  0  0  0
    1.9553    2.7025   -2.4975 C   0  0  0  0  0  0  0  0  0  0  0  0
   -6.4976   -1.7501    2.2887 C   0  0  0  0  0  0  0  0  0  0  0  0
   -8.4891   -0.5390    1.3585 C   0  0  0  0  0  0  0  0  0  0  0  0
   -3.3949    2.9899   -0.1819 C   0  0  0  0  0  0  0  0  0  0  0  0
    0.6620   -1.9369   -1.9742 C   0  0  0  0  0  0  0  0  0  0  0  0
    0.3207   -2.5766    0.3305 C   0  0  0  0  0  0  0  0  0  0  0  0
    1.5612   -2.9911   -2.1337 C   0  0  0  0  0  0  0  0  0  0  0  0
    1.2199   -3.6308    0.1711 C   0  0  0  0  0  0  0  0  0  0  0  0
    1.8401   -3.8381   -1.0610 C   0  0  0  0  0  0  0  0  0  0  0  0
    3.5129   -0.2636    1.1625 H   0  0  0  0  0  0  0  0  0  0  0  0
    3.0995    1.1699    2.1051 H   0  0  0  0  0  0  0  0  0  0  0  0
    7.2540   -0.0266    1.7786 H   0  0  0  0  0  0  0  0  0  0  0  0
    6.4895    0.6644    0.3417 H   0  0  0  0  0  0  0  0  0  0  0  0
    4.9116    2.5803    3.1786 H   0  0  0  0  0  0  0  0  0  0  0  0
    6.5938    2.0360    3.1604 H   0  0  0  0  0  0  0  0  0  0  0  0
    5.8825    2.7347    1.7066 H   0  0  0  0  0  0  0  0  0  0  0  0
    4.6930   -1.1906    3.1561 H   0  0  0  0  0  0  0  0  0  0  0  0
    4.3184    0.2641    4.0879 H   0  0  0  0  0  0  0  0  0  0  0  0
    5.9936   -0.2839    3.9422 H   0  0  0  0  0  0  0  0  0  0  0  0
    4.7609    2.0221   -0.0407 H   0  0  0  0  0  0  0  0  0  0  0  0
    6.6533   -1.5886    0.2576 H   0  0  0  0  0  0  0  0  0  0  0  0
   -7.0476   -1.6628    0.2302 H   0  0  0  0  0  0  0  0  0  0  0  0
   -6.1547    0.9149    1.6099 H   0  0  0  0  0  0  0  0  0  0  0  0
   -6.6095    0.7530   -0.1123 H   0  0  0  0  0  0  0  0  0  0  0  0
   -1.3792    3.4265   -0.7358 H   0  0  0  0  0  0  0  0  0  0  0  0
   -0.1086    2.2844   -2.9332 H   0  0  0  0  0  0  0  0  0  0  0  0
   -7.1337   -2.6101    2.5240 H   0  0  0  0  0  0  0  0  0  0  0  0
   -5.4913   -2.1305    2.0849 H   0  0  0  0  0  0  0  0  0  0  0  0
   -6.4460   -1.1142    3.1791 H   0  0  0  0  0  0  0  0  0  0  0  0
   -8.9068   -0.0204    0.4891 H   0  0  0  0  0  0  0  0  0  0  0  0
   -9.1275   -1.4034    1.5695 H   0  0  0  0  0  0  0  0  0  0  0  0
   -8.5436    0.1394    2.2167 H   0  0  0  0  0  0  0  0  0  0  0  0
    2.1186    3.3305   -3.3667 H   0  0  0  0  0  0  0  0  0  0  0  0
   -3.7103    4.0278   -0.1712 H   0  0  0  0  0  0  0  0  0  0  0  0
    0.4527   -1.2946   -2.8264 H   0  0  0  0  0  0  0  0  0  0  0  0
   -0.1524   -2.4281    1.2984 H   0  0  0  0  0  0  0  0  0  0  0  0
    2.0432   -3.1538   -3.0931 H   0  0  0  0  0  0  0  0  0  0  0  0
    1.4380   -4.2900    1.0060 H   0  0  0  0  0  0  0  0  0  0  0  0
  1 34  1  0  0  0  0
  2 12  1  0  0  0  0
  2 46  1  0  0  0  0
  3 21  1  0  0  0  0
  3 22  1  0  0  0  0
  4 11  1  0  0  0  0
  4 16  1  0  0  0  0
  4 45  1  0  0  0  0
  5 15  1  0  0  0  0
  5 18  1  0  0  0  0
  5 24  1  0  0  0  0
  6 16  1  0  0  0  0
  6 19  2  0  0  0  0
  7 17  1  0  0  0  0
  7 18  2  0  0  0  0
  8 16  2  0  0  0  0
  8 26  1  0  0  0  0
  9 21  2  0  0  0  0
  9 29  1  0  0  0  0
 10 11  1  0  0  0  0
 10 12  1  0  0  0  0
 10 13  1  0  0  0  0
 10 14  1  0  0  0  0
 11 35  1  0  0  0  0
 11 36  1  0  0  0  0
 12 37  1  0  0  0  0
 12 38  1  0  0  0  0
 13 39  1  0  0  0  0
 13 40  1  0  0  0  0
 13 41  1  0  0  0  0
 14 42  1  0  0  0  0
 14 43  1  0  0  0  0
 14 44  1  0  0  0  0
 15 17  2  0  0  0  0
 15 19  1  0  0  0  0
 17 23  1  0  0  0  0
 18 21  1  0  0  0  0
 19 25  1  0  0  0  0
 20 22  1  0  0  0  0
 20 27  1  0  0  0  0
 20 28  1  0  0  0  0
 20 47  1  0  0  0  0
 22 48  1  0  0  0  0
 22 49  1  0  0  0  0
 23 30  2  0  0  0  0
 23 31  1  0  0  0  0
 24 29  2  0  0  0  0
 24 50  1  0  0  0  0
 25 26  2  0  0  0  0
 25 51  1  0  0  0  0
 26 58  1  0  0  0  0
 27 52  1  0  0  0  0
 27 53  1  0  0  0  0
 27 54  1  0  0  0  0
 28 55  1  0  0  0  0
 28 56  1  0  0  0  0
 28 57  1  0  0  0  0
 29 59  1  0  0  0  0
 30 32  1  0  0  0  0
 30 60  1  0  0  0  0
 31 33  2  0  0  0  0
 31 61  1  0  0  0  0
 32 34  2  0  0  0  0
 32 62  1  0  0  0  0
 33 34  1  0  0  0  0
 33 63  1  0  0  0  0
M  END
> <PUBCHEM_COMPOUND_CID>
49830618

> <PUBCHEM_CONFORMER_RMSD>
1

> <PUBCHEM_CONFORMER_DIVERSEORDER>
1
25
104
95
70
20
96
97
39
89
72
18
80
68
78
61
66
36
74
67
11
31
99
69
55
114
41
49
91
93
5
44
101
86
4
52
103
109
63
84
57
30
56
58
76
111
83
51
13
81
62
6
43
2
82
110
92
12
40
106
100
32
28
112
34
108
38
10
53
46
105
15
33
77
37
88
71
60
94
27
21
107
64
22
47
79
102
8
85
50
23
24
65
29
48
98
45
3
42
16
113
7
35
90
87
19
54
14
73
17
9
59
75
26

> <PUBCHEM_MMFF94_PARTIAL_CHARGES>
38
1 -0.19
11 0.37
12 0.28
15 -0.2
16 0.72
17 0.17
18 0.1
19 0.36
2 -0.68
21 0.69
22 0.28
23 0.05
24 -0.18
25 -0.15
26 0.16
29 0.02
3 -0.43
30 -0.15
31 -0.15
32 -0.15
33 -0.15
34 0.19
4 -0.87
45 0.4
46 0.4
5 0.33
50 0.15
51 0.15
58 0.15
59 0.15
6 -0.62
60 0.15
61 0.15
62 0.15
63 0.15
7 -0.57
8 -0.62
9 -0.62

> <PUBCHEM_EFFECTIVE_ROTOR_COUNT>
9

> <PUBCHEM_PHARMACOPHORE_FEATURES>
12
1 2 acceptor
1 2 donor
1 4 donor
1 6 acceptor
3 10 13 14 hydrophobe
3 20 27 28 hydrophobe
3 5 7 18 cation
4 4 6 8 16 cation
5 5 7 15 17 18 rings
6 23 30 31 32 33 34 rings
6 5 9 18 21 24 29 rings
6 6 8 16 19 25 26 rings

> <PUBCHEM_HEAVY_ATOM_COUNT>
34

> <PUBCHEM_ATOM_DEF_STEREO_COUNT>
0

> <PUBCHEM_ATOM_UDEF_STEREO_COUNT>
0

> <PUBCHEM_BOND_DEF_STEREO_COUNT>
0

> <PUBCHEM_BOND_UDEF_STEREO_COUNT>
0

> <PUBCHEM_ISOTOPIC_ATOM_COUNT>
0

> <PUBCHEM_COMPONENT_COUNT>
1

> <PUBCHEM_CACTVS_TAUTO_COUNT>
3

> <PUBCHEM_CONFORMER_ID>
02F85ADA00000001

> <PUBCHEM_MMFF94_ENERGY>
96.1313

> <PUBCHEM_FEATURE_SELFOVERLAP>
61.012

> <PUBCHEM_SHAPE_FINGERPRINT>
10050765 1 18264505992560831861
11445158 3 17970060248263962077
11607047 141 16700361641354193735
11719270 70 18335710485565157623
11963148 33 18264781029192038343
12422481 6 18192131730061326256
12522641 24 17561092362436589227
12741549 16 16550281430255571626
12788726 201 17689436413875305974
12839892 36 18410009978989503077
13140716 1 17981335796373836357
13533116 47 17313386794035574041
13540713 4 18194964042013289205
13692114 37 18270964656310418871
14028597 1 17274829029887989219
14739800 52 17274545304638689129
15064986 96 18269541750930111786
15775530 1 17326307954316744084
16728300 4 17823398466355542865
16994733 274 15410895188795922843
17913733 40 18060702788587949083
19315958 150 18201996656419337144
1979834 28 18411420604999937922
20505436 4 17536328268820072724
20554085 129 17846224396446465464
20771845 140 18271815674331250427
21033648 29 17916288598269642266
21304304 249 17967253109072966523
21792934 111 18338522946431323705
22149856 69 18198931200757853777
22182313 1 17827630362004300837
22956985 138 18045219337028724058
23559900 14 18191033292391723725
27425 322 16520220099895384276
2838139 119 15697988639928815128
465052 167 17748829652258084581
5104073 3 18127703634650837961
5171179 24 17404278725988795612
5265222 85 18341331180659403500
59755656 215 18265073434553601463
6679774 75 18261117400492439970

> <PUBCHEM_SHAPE_MULTIPOLES>
650.81
16.11
4.5
2.6
20.96
4.05
0.94
-0.51
17.49
-2.98
-2.8
-3.64
-0.16
2.16

> <PUBCHEM_SHAPE_SELFOVERLAP>
1405.173

> <PUBCHEM_SHAPE_VOLUME>
361.4

> <PUBCHEM_COORDINATE_TYPE>
2
5
10

$$$$
