10484487
  -OEChem-10062122003D

 86 95  0     1  0  0  0  0  0999 V2000
    1.7481   -0.4971   -2.6874 O   0  0  0  0  0  0  0  0  0  0  0  0
    2.1060    0.5908    0.4401 O   0  0  0  0  0  0  0  0  0  0  0  0
   -4.9650   -2.1545   -0.2234 O   0  0  0  0  0  0  0  0  0  0  0  0
    5.7186    1.4314   -0.3738 O   0  0  0  0  0  0  0  0  0  0  0  0
    0.5639    1.2048   -1.6349 N   0  0  0  0  0  0  0  0  0  0  0  0
    0.3799   -1.7719   -1.3036 N   0  0  0  0  0  0  0  0  0  0  0  0
    4.7305   -0.6174    0.1698 N   0  0  0  0  0  0  0  0  0  0  0  0
   -5.2621    0.1723   -0.3776 N   0  0  0  0  0  0  0  0  0  0  0  0
    1.8970    0.7480   -1.9986 C   0  0  1  0  0  0  0  0  0  0  0  0
    2.8590    0.6825   -0.7770 C   0  0  2  0  0  0  0  0  0  0  0  0
    1.6977   -1.6505   -1.8837 C   0  0  2  0  0  0  0  0  0  0  0  0
    3.7532   -0.5495   -0.8880 C   0  0  2  0  0  0  0  0  0  0  0  0
    2.8711   -1.7936   -0.9030 C   0  0  0  0  0  0  0  0  0  0  0  0
   -0.5887    0.5048   -1.3631 C   0  0  0  0  0  0  0  0  0  0  0  0
   -0.6753   -0.9086   -1.1951 C   0  0  0  0  0  0  0  0  0  0  0  0
   -1.8309    1.2114   -1.1491 C   0  0  0  0  0  0  0  0  0  0  0  0
   -1.9947   -1.4095   -0.8439 C   0  0  0  0  0  0  0  0  0  0  0  0
    0.1345    2.5254   -1.4389 C   0  0  0  0  0  0  0  0  0  0  0  0
    2.5438    1.5908   -3.1229 C   0  0  0  0  0  0  0  0  0  0  0  0
   -3.0994    0.7068   -0.8818 C   0  0  0  0  0  0  0  0  0  0  0  0
   -0.2085   -2.9899   -0.9489 C   0  0  0  0  0  0  0  0  0  0  0  0
   -1.2807    2.5584   -1.2509 C   0  0  0  0  0  0  0  0  0  0  0  0
   -3.1692   -0.6686   -0.7229 C   0  0  0  0  0  0  0  0  0  0  0  0
   -1.5989   -2.8144   -0.6820 C   0  0  0  0  0  0  0  0  0  0  0  0
   -4.4339    1.3358   -0.6548 C   0  0  0  0  0  0  0  0  0  0  0  0
   -4.5524   -1.0258   -0.4077 C   0  0  0  0  0  0  0  0  0  0  0  0
    0.8707    3.7276   -1.3930 C   0  0  0  0  0  0  0  0  0  0  0  0
   -1.9138    3.8203   -1.1152 C   0  0  0  0  0  0  0  0  0  0  0  0
    0.3934   -4.2632   -0.8627 C   0  0  0  0  0  0  0  0  0  0  0  0
   -2.3361   -3.9690   -0.3135 C   0  0  0  0  0  0  0  0  0  0  0  0
    4.6782   -1.8102    1.0223 C   0  0  0  0  0  0  0  0  0  0  0  0
    5.6590    0.4249    0.3315 C   0  0  0  0  0  0  0  0  0  0  0  0
    2.9557    0.5346    1.5790 C   0  0  0  0  0  0  0  0  0  0  0  0
   -6.6771    0.3035   -0.1043 C   0  0  0  0  0  0  0  0  0  0  0  0
    0.2086    4.9494   -1.2469 C   0  0  0  0  0  0  0  0  0  0  0  0
   -1.1692    4.9991   -1.1261 C   0  0  0  0  0  0  0  0  0  0  0  0
   -0.3762   -5.3672   -0.4993 C   0  0  0  0  0  0  0  0  0  0  0  0
   -1.7254   -5.2235   -0.2260 C   0  0  0  0  0  0  0  0  0  0  0  0
    6.6345    0.3409    1.4300 C   0  0  0  0  0  0  0  0  0  0  0  0
   -6.9501    0.4832    1.3655 C   0  0  0  0  0  0  0  0  0  0  0  0
    7.8578   -0.2725    1.2081 C   0  0  0  0  0  0  0  0  0  0  0  0
    6.3128    0.8767    2.6674 C   0  0  0  0  0  0  0  0  0  0  0  0
   -7.1603   -0.6331    2.1631 C   0  0  0  0  0  0  0  0  0  0  0  0
   -6.9883    1.7625    1.9020 C   0  0  0  0  0  0  0  0  0  0  0  0
    8.7823   -0.3523    2.2496 C   0  0  0  0  0  0  0  0  0  0  0  0
    7.2373    0.7970    3.7088 C   0  0  0  0  0  0  0  0  0  0  0  0
   -7.4137   -0.4666    3.5246 C   0  0  0  0  0  0  0  0  0  0  0  0
   -7.2415    1.9291    3.2636 C   0  0  0  0  0  0  0  0  0  0  0  0
    8.4721    0.1825    3.4999 C   0  0  0  0  0  0  0  0  0  0  0  0
   -7.4544    0.8145    4.0749 C   0  0  0  0  0  0  0  0  0  0  0  0
    3.4113    1.6255   -0.7251 H   0  0  0  0  0  0  0  0  0  0  0  0
    1.7677   -2.4829   -2.5957 H   0  0  0  0  0  0  0  0  0  0  0  0
    4.3202   -0.4924   -1.8266 H   0  0  0  0  0  0  0  0  0  0  0  0
    3.4638   -2.6707   -1.1940 H   0  0  0  0  0  0  0  0  0  0  0  0
    2.4179   -2.0273    0.0632 H   0  0  0  0  0  0  0  0  0  0  0  0
    2.9383    2.5500   -2.7861 H   0  0  0  0  0  0  0  0  0  0  0  0
    1.8291    1.7795   -3.9335 H   0  0  0  0  0  0  0  0  0  0  0  0
    3.3855    1.0510   -3.5757 H   0  0  0  0  0  0  0  0  0  0  0  0
   -4.4264    1.9991    0.2137 H   0  0  0  0  0  0  0  0  0  0  0  0
   -4.8028    1.8435   -1.5501 H   0  0  0  0  0  0  0  0  0  0  0  0
    1.9527    3.7339   -1.4493 H   0  0  0  0  0  0  0  0  0  0  0  0
   -2.9903    3.8802   -0.9756 H   0  0  0  0  0  0  0  0  0  0  0  0
    1.4506   -4.3975   -1.0727 H   0  0  0  0  0  0  0  0  0  0  0  0
   -3.3942   -3.9059   -0.0866 H   0  0  0  0  0  0  0  0  0  0  0  0
    5.3292   -1.7034    1.8928 H   0  0  0  0  0  0  0  0  0  0  0  0
    3.7093   -2.1079    1.4159 H   0  0  0  0  0  0  0  0  0  0  0  0
    5.0886   -2.6448    0.4419 H   0  0  0  0  0  0  0  0  0  0  0  0
    3.0774   -0.4448    2.0132 H   0  0  0  0  0  0  0  0  0  0  0  0
    2.3476    1.0100    2.3637 H   0  0  0  0  0  0  0  0  0  0  0  0
    3.7872    1.2262    1.5214 H   0  0  0  0  0  0  0  0  0  0  0  0
   -7.0806    1.1382   -0.6894 H   0  0  0  0  0  0  0  0  0  0  0  0
   -7.1829   -0.6031   -0.4588 H   0  0  0  0  0  0  0  0  0  0  0  0
    0.7856    5.8702   -1.2229 H   0  0  0  0  0  0  0  0  0  0  0  0
   -1.6711    5.9557   -1.0122 H   0  0  0  0  0  0  0  0  0  0  0  0
    0.0887   -6.3468   -0.4302 H   0  0  0  0  0  0  0  0  0  0  0  0
   -2.3162   -6.0898    0.0586 H   0  0  0  0  0  0  0  0  0  0  0  0
    8.1065   -0.6918    0.2372 H   0  0  0  0  0  0  0  0  0  0  0  0
    5.3710    1.3761    2.8579 H   0  0  0  0  0  0  0  0  0  0  0  0
   -7.1313   -1.6356    1.7460 H   0  0  0  0  0  0  0  0  0  0  0  0
   -6.8246    2.6372    1.2790 H   0  0  0  0  0  0  0  0  0  0  0  0
    9.7437   -0.8307    2.0869 H   0  0  0  0  0  0  0  0  0  0  0  0
    6.9979    1.2169    4.6814 H   0  0  0  0  0  0  0  0  0  0  0  0
   -7.5793   -1.3343    4.1563 H   0  0  0  0  0  0  0  0  0  0  0  0
   -7.2731    2.9265    3.6921 H   0  0  0  0  0  0  0  0  0  0  0  0
    9.1922    0.1213    4.3106 H   0  0  0  0  0  0  0  0  0  0  0  0
   -7.6516    0.9442    5.1350 H   0  0  0  0  0  0  0  0  0  0  0  0
  1  9  1  0  0  0  0
  1 11  1  0  0  0  0
  2 10  1  0  0  0  0
  2 33  1  0  0  0  0
  3 26  2  0  0  0  0
  4 32  2  0  0  0  0
  5  9  1  0  0  0  0
  5 14  1  0  0  0  0
  5 18  1  0  0  0  0
  6 11  1  0  0  0  0
  6 15  1  0  0  0  0
  6 21  1  0  0  0  0
  7 12  1  0  0  0  0
  7 31  1  0  0  0  0
  7 32  1  0  0  0  0
  8 25  1  0  0  0  0
  8 26  1  0  0  0  0
  8 34  1  0  0  0  0
  9 10  1  0  0  0  0
  9 19  1  0  0  0  0
 10 12  1  0  0  0  0
 10 51  1  0  0  0  0
 11 13  1  0  0  0  0
 11 52  1  0  0  0  0
 12 13  1  0  0  0  0
 12 53  1  0  0  0  0
 13 54  1  0  0  0  0
 13 55  1  0  0  0  0
 14 15  2  0  0  0  0
 14 16  1  0  0  0  0
 15 17  1  0  0  0  0
 16 20  2  0  0  0  0
 16 22  1  0  0  0  0
 17 23  2  0  0  0  0
 17 24  1  0  0  0  0
 18 22  1  0  0  0  0
 18 27  2  0  0  0  0
 19 56  1  0  0  0  0
 19 57  1  0  0  0  0
 19 58  1  0  0  0  0
 20 23  1  0  0  0  0
 20 25  1  0  0  0  0
 21 24  1  0  0  0  0
 21 29  2  0  0  0  0
 22 28  2  0  0  0  0
 23 26  1  0  0  0  0
 24 30  2  0  0  0  0
 25 59  1  0  0  0  0
 25 60  1  0  0  0  0
 27 35  1  0  0  0  0
 27 61  1  0  0  0  0
 28 36  1  0  0  0  0
 28 62  1  0  0  0  0
 29 37  1  0  0  0  0
 29 63  1  0  0  0  0
 30 38  1  0  0  0  0
 30 64  1  0  0  0  0
 31 65  1  0  0  0  0
 31 66  1  0  0  0  0
 31 67  1  0  0  0  0
 32 39  1  0  0  0  0
 33 68  1  0  0  0  0
 33 69  1  0  0  0  0
 33 70  1  0  0  0  0
 34 40  1  0  0  0  0
 34 71  1  0  0  0  0
 34 72  1  0  0  0  0
 35 36  2  0  0  0  0
 35 73  1  0  0  0  0
 36 74  1  0  0  0  0
 37 38  2  0  0  0  0
 37 75  1  0  0  0  0
 38 76  1  0  0  0  0
 39 41  2  0  0  0  0
 39 42  1  0  0  0  0
 40 43  2  0  0  0  0
 40 44  1  0  0  0  0
 41 45  1  0  0  0  0
 41 77  1  0  0  0  0
 42 46  2  0  0  0  0
 42 78  1  0  0  0  0
 43 47  1  0  0  0  0
 43 79  1  0  0  0  0
 44 48  2  0  0  0  0
 44 80  1  0  0  0  0
 45 49  2  0  0  0  0
 45 81  1  0  0  0  0
 46 49  1  0  0  0  0
 46 82  1  0  0  0  0
 47 50  2  0  0  0  0
 47 83  1  0  0  0  0
 48 50  1  0  0  0  0
 48 84  1  0  0  0  0
 49 85  1  0  0  0  0
 50 86  1  0  0  0  0
M  END
> <PUBCHEM_COMPOUND_CID>
10484487

> <PUBCHEM_CONFORMER_RMSD>
1

> <PUBCHEM_CONFORMER_DIVERSEORDER>
5
4
16
1
15
8
14
9
12
3
2
13
6
7
10
11

> <PUBCHEM_MMFF94_PARTIAL_CHARGES>
64
1 -0.56
10 0.28
11 0.54
12 0.3
14 -0.05
15 -0.05
16 -0.01
17 -0.01
18 -0.15
2 -0.56
20 -0.14
21 -0.15
23 0.09
25 0.44
26 0.54
27 -0.15
28 -0.15
29 -0.15
3 -0.57
30 -0.15
31 0.3
32 0.54
33 0.28
34 0.44
35 -0.15
36 -0.15
37 -0.15
38 -0.15
39 0.09
4 -0.57
40 -0.14
41 -0.15
42 -0.15
43 -0.15
44 -0.15
45 -0.15
46 -0.15
47 -0.15
48 -0.15
49 -0.15
5 -0.04
50 -0.15
6 -0.04
61 0.15
62 0.15
63 0.15
64 0.15
7 -0.66
73 0.15
74 0.15
75 0.15
76 0.15
77 0.15
78 0.15
79 0.15
8 -0.66
80 0.15
81 0.15
82 0.15
83 0.15
84 0.15
85 0.15
86 0.15
9 0.54

> <PUBCHEM_EFFECTIVE_ROTOR_COUNT>
7.2

> <PUBCHEM_PHARMACOPHORE_FEATURES>
16
1 1 acceptor
1 2 acceptor
1 3 acceptor
1 4 acceptor
1 5 cation
1 6 cation
5 5 14 16 18 22 rings
5 6 15 17 21 24 rings
5 8 20 23 25 26 rings
6 1 9 10 11 12 13 rings
6 14 15 16 17 20 23 rings
6 18 22 27 28 35 36 rings
6 21 24 29 30 37 38 rings
6 39 41 42 45 46 49 rings
6 40 43 44 47 48 50 rings
7 1 5 6 9 11 14 15 rings

> <PUBCHEM_HEAVY_ATOM_COUNT>
50

> <PUBCHEM_ATOM_DEF_STEREO_COUNT>
4

> <PUBCHEM_ATOM_UDEF_STEREO_COUNT>
0

> <PUBCHEM_BOND_DEF_STEREO_COUNT>
0

> <PUBCHEM_BOND_UDEF_STEREO_COUNT>
0

> <PUBCHEM_ISOTOPIC_ATOM_COUNT>
0

> <PUBCHEM_COMPONENT_COUNT>
1

> <PUBCHEM_CACTVS_TAUTO_COUNT>
1

> <PUBCHEM_CONFORMER_ID>
009FFB0700000005

> <PUBCHEM_MMFF94_ENERGY>
239.6079

> <PUBCHEM_FEATURE_SELFOVERLAP>
82.162

> <PUBCHEM_SHAPE_FINGERPRINT>
10290309 65 18195229045869735830
10439779 11 18125162890263831421
12608794 3 18411418457806745709
14705955 166 17989198227160537056
14856354 85 18265031687957176974
14931854 50 10375872978401297954
15131766 46 15554147243306957632
15320294 125 17968084331384679902
15950262 2 16128659647836009841
16114785 44 18124000522095393644
16994733 274 16128370458987609715
19246450 95 18409164377729455721
21033648 29 17632300102826997270
21133410 171 16975582917637781270
22122407 14 16343418535337455754
24771293 8 18273496767327285613
3882209 13 17693064758991826422
57527358 35 15357700799174975719
6058803 2 17683246133293474014
6201320 82 14189313564054250619
6691757 9 18339631326048617391
9896288 288 18191289504207638860

> <PUBCHEM_SHAPE_MULTIPOLES>
985.58
21.08
5.59
3.59
8.61
2.33
-4.18
-4.27
-33.31
-3.64
3.66
0.08
-1.71
-0.77

> <PUBCHEM_SHAPE_SELFOVERLAP>
2259.048

> <PUBCHEM_SHAPE_VOLUME>
506.3

> <PUBCHEM_COORDINATE_TYPE>
2
5
10

$$$$
