24905167
  -OEChem-10052115143D

 38 40  0     0  0  0  0  0  0999 V2000
   -2.4823    0.8153   -0.2702 N   0  0  0  0  0  0  0  0  0  0  0  0
   -1.2990    1.4081   -0.0249 N   0  0  0  0  0  0  0  0  0  0  0  0
   -3.4676   -1.3956   -0.3312 N   0  0  0  0  0  0  0  0  0  0  0  0
   -1.8375   -3.1250    0.2190 N   0  0  0  0  0  0  0  0  0  0  0  0
    0.4378   -2.6323    0.7456 N   0  0  0  0  0  0  0  0  0  0  0  0
    5.2671   -1.4657   -1.6297 N   0  0  0  0  0  0  0  0  0  0  0  0
   -3.6247    1.6248   -0.6220 C   0  0  0  0  0  0  0  0  0  0  0  0
   -2.4475   -0.5421   -0.1484 C   0  0  0  0  0  0  0  0  0  0  0  0
   -1.1473   -0.8610    0.2020 C   0  0  0  0  0  0  0  0  0  0  0  0
   -0.4903    0.3821    0.2619 C   0  0  0  0  0  0  0  0  0  0  0  0
    0.8923    0.6287    0.5853 C   0  0  0  0  0  0  0  0  0  0  0  0
   -4.0020    2.5872    0.5069 C   0  0  0  0  0  0  0  0  0  0  0  0
   -3.3951    2.3837   -1.9315 C   0  0  0  0  0  0  0  0  0  0  0  0
   -0.8546   -2.2081    0.3872 C   0  0  0  0  0  0  0  0  0  0  0  0
    1.8526    0.6505   -0.4261 C   0  0  0  0  0  0  0  0  0  0  0  0
    1.2701    0.8453    1.9106 C   0  0  0  0  0  0  0  0  0  0  0  0
    3.1906    0.8890   -0.1125 C   0  0  0  0  0  0  0  0  0  0  0  0
   -3.0654   -2.6683   -0.1249 C   0  0  0  0  0  0  0  0  0  0  0  0
    2.6081    1.0837    2.2242 C   0  0  0  0  0  0  0  0  0  0  0  0
    3.5685    1.1054    1.2127 C   0  0  0  0  0  0  0  0  0  0  0  0
    4.2181    0.9111   -1.1933 C   0  0  0  0  0  0  0  0  0  0  0  0
    4.8080   -0.4169   -1.4406 C   0  0  0  0  0  0  0  0  0  0  0  0
   -4.4717    0.9454   -0.7761 H   0  0  0  0  0  0  0  0  0  0  0  0
   -4.1742    2.0426    1.4419 H   0  0  0  0  0  0  0  0  0  0  0  0
   -4.9193    3.1321    0.2598 H   0  0  0  0  0  0  0  0  0  0  0  0
   -3.2126    3.3243    0.6919 H   0  0  0  0  0  0  0  0  0  0  0  0
   -4.3000    2.9243   -2.2285 H   0  0  0  0  0  0  0  0  0  0  0  0
   -3.1333    1.6934   -2.7411 H   0  0  0  0  0  0  0  0  0  0  0  0
   -2.5824    3.1129   -1.8403 H   0  0  0  0  0  0  0  0  0  0  0  0
    1.5609    0.4800   -1.4607 H   0  0  0  0  0  0  0  0  0  0  0  0
    0.5340    0.8309    2.7109 H   0  0  0  0  0  0  0  0  0  0  0  0
   -3.8285   -3.4287   -0.2516 H   0  0  0  0  0  0  0  0  0  0  0  0
    2.9025    1.2515    3.2560 H   0  0  0  0  0  0  0  0  0  0  0  0
    4.6078    1.2906    1.4709 H   0  0  0  0  0  0  0  0  0  0  0  0
    5.0125    1.6235   -0.9368 H   0  0  0  0  0  0  0  0  0  0  0  0
    3.7745    1.2943   -2.1210 H   0  0  0  0  0  0  0  0  0  0  0  0
    1.1899   -1.9725    0.8787 H   0  0  0  0  0  0  0  0  0  0  0  0
    0.6074   -3.6212    0.8716 H   0  0  0  0  0  0  0  0  0  0  0  0
  1  2  1  0  0  0  0
  1  7  1  0  0  0  0
  1  8  1  0  0  0  0
  2 10  2  0  0  0  0
  3  8  2  0  0  0  0
  3 18  1  0  0  0  0
  4 14  1  0  0  0  0
  4 18  2  0  0  0  0
  5 14  1  0  0  0  0
  5 37  1  0  0  0  0
  5 38  1  0  0  0  0
  6 22  3  0  0  0  0
  7 12  1  0  0  0  0
  7 13  1  0  0  0  0
  7 23  1  0  0  0  0
  8  9  1  0  0  0  0
  9 10  1  0  0  0  0
  9 14  2  0  0  0  0
 10 11  1  0  0  0  0
 11 15  1  0  0  0  0
 11 16  2  0  0  0  0
 12 24  1  0  0  0  0
 12 25  1  0  0  0  0
 12 26  1  0  0  0  0
 13 27  1  0  0  0  0
 13 28  1  0  0  0  0
 13 29  1  0  0  0  0
 15 17  2  0  0  0  0
 15 30  1  0  0  0  0
 16 19  1  0  0  0  0
 16 31  1  0  0  0  0
 17 20  1  0  0  0  0
 17 21  1  0  0  0  0
 18 32  1  0  0  0  0
 19 20  2  0  0  0  0
 19 33  1  0  0  0  0
 20 34  1  0  0  0  0
 21 22  1  0  0  0  0
 21 35  1  0  0  0  0
 21 36  1  0  0  0  0
M  END
> <PUBCHEM_COMPOUND_CID>
24905167

> <PUBCHEM_CONFORMER_RMSD>
0.6

> <PUBCHEM_CONFORMER_DIVERSEORDER>
1
6
31
11
7
9
20
17
25
28
15
21
13
5
14
30
19
24
8
12
29
10
16
18
26
27
2
23
22
3
4

> <PUBCHEM_MMFF94_PARTIAL_CHARGES>
26
1 0.31
10 0.23
11 0.05
14 0.41
15 -0.15
16 -0.15
17 -0.14
18 0.47
19 -0.15
2 -0.71
20 -0.15
21 0.34
22 0.36
3 -0.57
30 0.15
31 0.15
32 0.15
33 0.15
34 0.15
37 0.4
38 0.4
4 -0.62
5 -0.9
6 -0.56
7 0.26
8 0.11

> <PUBCHEM_EFFECTIVE_ROTOR_COUNT>
3

> <PUBCHEM_PHARMACOPHORE_FEATURES>
10
1 2 acceptor
1 5 cation
1 5 donor
1 6 acceptor
3 1 3 8 cation
3 3 4 18 cation
3 7 12 13 hydrophobe
5 1 2 8 9 10 rings
6 11 15 16 17 19 20 rings
6 3 4 8 9 14 18 rings

> <PUBCHEM_HEAVY_ATOM_COUNT>
22

> <PUBCHEM_ATOM_DEF_STEREO_COUNT>
0

> <PUBCHEM_ATOM_UDEF_STEREO_COUNT>
0

> <PUBCHEM_BOND_DEF_STEREO_COUNT>
0

> <PUBCHEM_BOND_UDEF_STEREO_COUNT>
0

> <PUBCHEM_ISOTOPIC_ATOM_COUNT>
0

> <PUBCHEM_COMPONENT_COUNT>
1

> <PUBCHEM_CACTVS_TAUTO_COUNT>
5

> <PUBCHEM_CONFORMER_ID>
017C05CF00000001

> <PUBCHEM_MMFF94_ENERGY>
48.7347

> <PUBCHEM_FEATURE_SELFOVERLAP>
51.025

> <PUBCHEM_SHAPE_FINGERPRINT>
10165383 225 18265908955895786989
107951 10 17677068853414200138
11582403 64 16478180108981477969
11796584 16 18341898451138765630
12236239 1 17313928840356097208
12549972 3 17847056701105366114
12553582 1 17973155420756413843
12788726 201 18043808908201221515
12954195 1 18342462530346624567
13134695 92 16702018699555458928
13140716 1 18121485879073483603
13544592 145 18272370845798127320
14022347 108 17754728656906398411
14251751 93 18408605876665547958
14251757 17 18270974444513954062
14790565 3 17836378046423845088
14955137 171 17970092026658477317
15842332 3 17386266771072559744
16752209 62 18262223538636698435
16945 1 18191852621585371323
18186145 218 18343297050555002040
19049666 15 18059853999701687824
20510252 161 18196923577718317073
20642791 178 17543914503291859840
20645477 70 16988848310836041524
20693207 138 18129954506329535276
20871999 31 18336835294086194060
21065201 7 18410288146867763106
21344244 181 17845918707156518495
22182313 1 17987790942665877784
22907989 373 18264765639753660725
22943178 12 18130781325993698088
23366157 5 17607226689617891571
23526113 38 17703215317163072384
23557571 272 18268422611233390088
23559900 14 18272370867726637912
23598291 2 17241030055487868008
2748010 2 18264482902431143143
312425 83 18042424524857872436
350125 39 18337957784100252939
3729539 64 17906184949050317886
458136 41 18194121803258453393
5161694 15 18202282507065817340
56616090 163 18337113354632378749
57527295 17 17632291233608514172
59755656 215 18412543206841597159
59755656 520 18059305253896548617
6049 1 18058730354547511856
621550 34 17411893268975192064
633830 44 18059842931661383545
7399639 24 17340111656787842768
7615 1 17169244083634809520
77492 1 17313647352373243320
81228 2 18192140727986169513
9709674 26 18200028576927137310

> <PUBCHEM_SHAPE_MULTIPOLES>
422.86
9.04
3.1
1.63
6.49
1.86
-0.16
-2.01
4.27
-3.91
0.09
1.74
-0.7
1.63

> <PUBCHEM_SHAPE_SELFOVERLAP>
920.678

> <PUBCHEM_SHAPE_VOLUME>
226.3

> <PUBCHEM_COORDINATE_TYPE>
2
5
10

$$$$
