24905284
  -OEChem-10052115163D

 42 45  0     0  0  0  0  0  0999 V2000
    2.2255   -0.6139   -0.7111 O   0  0  0  0  0  0  0  0  0  0  0  0
   -3.2734   -0.8543   -1.7253 N   0  0  0  0  0  0  0  0  0  0  0  0
   -4.4338   -0.1858   -1.9080 N   0  0  0  0  0  0  0  0  0  0  0  0
   -5.4979    1.4818   -0.4935 N   0  0  0  0  0  0  0  0  0  0  0  0
   -4.1493    1.9374    1.5682 N   0  0  0  0  0  0  0  0  0  0  0  0
   -2.0595    0.8471    2.0666 N   0  0  0  0  0  0  0  0  0  0  0  0
   -1.3546   -1.1598   -0.2230 C   0  0  0  0  0  0  0  0  0  0  0  0
   -2.6085   -0.5376   -0.5707 C   0  0  0  0  0  0  0  0  0  0  0  0
   -3.3973    0.4005    0.0305 C   0  0  0  0  0  0  0  0  0  0  0  0
    1.0600   -1.1874   -0.2998 C   0  0  0  0  0  0  0  0  0  0  0  0
   -0.1526   -0.5861   -0.6370 C   0  0  0  0  0  0  0  0  0  0  0  0
    1.0705   -2.3627    0.4513 C   0  0  0  0  0  0  0  0  0  0  0  0
   -1.3442   -2.3350    0.5282 C   0  0  0  0  0  0  0  0  0  0  0  0
   -0.1317   -2.9366    0.8652 C   0  0  0  0  0  0  0  0  0  0  0  0
   -4.5185    0.5941   -0.8247 C   0  0  0  0  0  0  0  0  0  0  0  0
   -3.1709    1.0487    1.2343 C   0  0  0  0  0  0  0  0  0  0  0  0
    2.4872    0.7147   -0.2635 C   0  0  0  0  0  0  0  0  0  0  0  0
    2.3590   -3.0197    0.8219 C   0  0  0  0  0  0  0  0  0  0  0  0
    3.9712    0.9200   -0.1801 C   0  0  0  0  0  0  0  0  0  0  0  0
    4.6496    0.6322    1.0043 C   0  0  0  0  0  0  0  0  0  0  0  0
    4.6724    1.3990   -1.2868 C   0  0  0  0  0  0  0  0  0  0  0  0
   -5.2145    2.0878    0.7051 C   0  0  0  0  0  0  0  0  0  0  0  0
    6.0291    0.8234    1.0819 C   0  0  0  0  0  0  0  0  0  0  0  0
    6.0520    1.5899   -1.2092 C   0  0  0  0  0  0  0  0  0  0  0  0
    6.7304    1.3021   -0.0249 C   0  0  0  0  0  0  0  0  0  0  0  0
   -0.1605    0.3262   -1.2299 H   0  0  0  0  0  0  0  0  0  0  0  0
   -2.2726   -2.7943    0.8596 H   0  0  0  0  0  0  0  0  0  0  0  0
   -0.1408   -3.8514    1.4519 H   0  0  0  0  0  0  0  0  0  0  0  0
   -2.9944   -1.5184   -2.4366 H   0  0  0  0  0  0  0  0  0  0  0  0
    2.0326    0.9014    0.7191 H   0  0  0  0  0  0  0  0  0  0  0  0
    2.0449    1.4276   -0.9700 H   0  0  0  0  0  0  0  0  0  0  0  0
    2.9490   -3.2374   -0.0746 H   0  0  0  0  0  0  0  0  0  0  0  0
    2.9392   -2.3686    1.4839 H   0  0  0  0  0  0  0  0  0  0  0  0
    2.1987   -3.9683    1.3455 H   0  0  0  0  0  0  0  0  0  0  0  0
    4.1146    0.2562    1.8724 H   0  0  0  0  0  0  0  0  0  0  0  0
    4.1554    1.6250   -2.2156 H   0  0  0  0  0  0  0  0  0  0  0  0
   -5.9568    2.8111    1.0320 H   0  0  0  0  0  0  0  0  0  0  0  0
   -1.3239    0.1972    1.8393 H   0  0  0  0  0  0  0  0  0  0  0  0
   -1.9998    1.3791    2.9248 H   0  0  0  0  0  0  0  0  0  0  0  0
    6.5575    0.5987    2.0037 H   0  0  0  0  0  0  0  0  0  0  0  0
    6.5981    1.9621   -2.0710 H   0  0  0  0  0  0  0  0  0  0  0  0
    7.8045    1.4504    0.0355 H   0  0  0  0  0  0  0  0  0  0  0  0
  1 10  1  0  0  0  0
  1 17  1  0  0  0  0
  2  3  1  0  0  0  0
  2  8  1  0  0  0  0
  2 29  1  0  0  0  0
  3 15  2  0  0  0  0
  4 15  1  0  0  0  0
  4 22  2  0  0  0  0
  5 16  2  0  0  0  0
  5 22  1  0  0  0  0
  6 16  1  0  0  0  0
  6 38  1  0  0  0  0
  6 39  1  0  0  0  0
  7  8  1  0  0  0  0
  7 11  2  0  0  0  0
  7 13  1  0  0  0  0
  8  9  2  0  0  0  0
  9 15  1  0  0  0  0
  9 16  1  0  0  0  0
 10 11  1  0  0  0  0
 10 12  2  0  0  0  0
 11 26  1  0  0  0  0
 12 14  1  0  0  0  0
 12 18  1  0  0  0  0
 13 14  2  0  0  0  0
 13 27  1  0  0  0  0
 14 28  1  0  0  0  0
 17 19  1  0  0  0  0
 17 30  1  0  0  0  0
 17 31  1  0  0  0  0
 18 32  1  0  0  0  0
 18 33  1  0  0  0  0
 18 34  1  0  0  0  0
 19 20  2  0  0  0  0
 19 21  1  0  0  0  0
 20 23  1  0  0  0  0
 20 35  1  0  0  0  0
 21 24  2  0  0  0  0
 21 36  1  0  0  0  0
 22 37  1  0  0  0  0
 23 25  2  0  0  0  0
 23 40  1  0  0  0  0
 24 25  1  0  0  0  0
 24 41  1  0  0  0  0
 25 42  1  0  0  0  0
M  END
> <PUBCHEM_COMPOUND_CID>
24905284

> <PUBCHEM_CONFORMER_RMSD>
0.8

> <PUBCHEM_CONFORMER_DIVERSEORDER>
2
30
28
18
36
17
25
38
35
23
34
5
29
8
21
6
19
24
37
41
11
13
20
9
42
14
16
15
22
7
40
26
10
39
1
33
32
4
3
27
31
12

> <PUBCHEM_MMFF94_PARTIAL_CHARGES>
36
1 -0.36
10 0.08
11 -0.15
12 -0.14
13 -0.15
14 -0.15
15 0.54
16 0.41
17 0.42
18 0.14
19 -0.14
2 0.3
20 -0.15
21 -0.15
22 0.47
23 -0.15
24 -0.15
25 -0.15
26 0.15
27 0.15
28 0.15
29 0.27
3 -0.71
35 0.15
36 0.15
37 0.15
38 0.4
39 0.4
4 -0.57
40 0.15
41 0.15
42 0.15
5 -0.62
6 -0.9
7 0.05
8 -0.2

> <PUBCHEM_EFFECTIVE_ROTOR_COUNT>
4

> <PUBCHEM_PHARMACOPHORE_FEATURES>
10
1 1 acceptor
1 2 donor
1 6 donor
3 3 4 15 cation
3 4 5 22 cation
3 5 6 16 cation
5 2 3 8 9 15 rings
6 19 20 21 23 24 25 rings
6 4 5 9 15 16 22 rings
6 7 10 11 12 13 14 rings

> <PUBCHEM_HEAVY_ATOM_COUNT>
25

> <PUBCHEM_ATOM_DEF_STEREO_COUNT>
0

> <PUBCHEM_ATOM_UDEF_STEREO_COUNT>
0

> <PUBCHEM_BOND_DEF_STEREO_COUNT>
0

> <PUBCHEM_BOND_UDEF_STEREO_COUNT>
0

> <PUBCHEM_ISOTOPIC_ATOM_COUNT>
0

> <PUBCHEM_COMPONENT_COUNT>
1

> <PUBCHEM_CACTVS_TAUTO_COUNT>
13

> <PUBCHEM_CONFORMER_ID>
017C064400000002

> <PUBCHEM_MMFF94_ENERGY>
82.8536

> <PUBCHEM_FEATURE_SELFOVERLAP>
51.129

> <PUBCHEM_SHAPE_FINGERPRINT>
10319926 262 14851606531590559743
11370993 144 15068607297847806584
12107183 9 18114450207473432970
12390115 104 18262248810319473358
12422481 6 17022895749231126198
12633257 1 18187643652382824132
13583140 156 15791722044539629380
13631057 29 18267015241003649623
14068700 675 17975692011383076679
14251764 30 11891598110802589232
14251764 38 17915171541215620008
14341114 176 15357694189368278740
14739800 52 17916566683989466882
14840074 17 17894634768452847548
14931854 50 17989202612601713945
15183329 4 17060627672623746148
15188451 53 12757156809444880617
15348495 7 15357700829303588492
17780758 139 12685085995122868197
18222031 100 9655576292838208630
19489759 90 17917993910227770132
19784866 240 8790877476497056569
20511986 3 18201143352800507725
21033648 144 18261668190928729567
21033648 29 17095804292296667647
21033650 10 16056600920180208835
21298829 104 18340207380549086949
21315759 148 14056712440480753452
21756936 100 18343589563829538043
22950370 63 9511466640911776598
23559900 14 16557058931724900631
23569917 315 18334292089227019170
2838139 119 18131066048065885160
312425 54 13407062683362465428
329604 57 12031793578342544440
34797466 226 16056593304786350888
38570 142 18198362696256527894
397830 11 13840271441816990036
4098825 35 15697736821616366989
469060 322 18043549398093626515
474 4 18336544932632328267
474113 269 12901843761333060849
5104073 3 18041282088678515747
5385378 56 18334293124598038530
59682541 52 17203055075991163116
59755656 520 18410292531650045022
6034566 193 17969517059290836980
6058803 2 17912351045299001631
6328613 192 18264211490885242844
7226269 152 18343024410858951080
7288768 16 18187375311278798747
7970288 3 10159697979995492092
9981440 41 18341896315685938634

> <PUBCHEM_SHAPE_MULTIPOLES>
483.71
14.9
2.84
1.51
12.16
2.25
-0.07
-13.54
0.77
-0.03
-0.82
-0.93
-0.41
-1.66

> <PUBCHEM_SHAPE_SELFOVERLAP>
1073.941

> <PUBCHEM_SHAPE_VOLUME>
256.2

> <PUBCHEM_COORDINATE_TYPE>
2
5
10

$$$$
