44442347
  -OEChem-10052120443D

 50 54  0     0  0  0  0  0  0999 V2000
    8.7536   -1.9989    0.4239 O   0  0  0  0  0  0  0  0  0  0  0  0
    3.6017    1.7526   -0.6673 O   0  0  0  0  0  0  0  0  0  0  0  0
    6.4215   -0.3670    0.4102 N   0  0  0  0  0  0  0  0  0  0  0  0
   -1.0871   -1.5785   -0.7251 N   0  0  0  0  0  0  0  0  0  0  0  0
   -2.3983   -1.9146   -0.6162 N   0  0  0  0  0  0  0  0  0  0  0  0
   -6.3186    0.3037    1.0349 N   0  0  0  0  0  0  0  0  0  0  0  0
   -9.6418   -0.3065    0.8629 N   0  0  0  0  0  0  0  0  0  0  0  0
   -2.0205    1.7545    0.1034 C   0  0  0  0  0  0  0  0  0  0  0  0
   -2.0982    0.2965   -0.1924 C   0  0  0  0  0  0  0  0  0  0  0  0
   -0.4971    1.9065   -0.0738 C   0  0  0  0  0  0  0  0  0  0  0  0
    0.1546    0.6891   -0.4186 C   0  0  0  0  0  0  0  0  0  0  0  0
   -0.8882   -0.2714   -0.4774 C   0  0  0  0  0  0  0  0  0  0  0  0
    7.5630   -0.0688    1.2865 C   0  0  0  0  0  0  0  0  0  0  0  0
    6.8842   -1.0567   -0.8021 C   0  0  0  0  0  0  0  0  0  0  0  0
    5.6973    0.8552    0.0676 C   0  0  0  0  0  0  0  0  0  0  0  0
   -3.0063   -0.7581   -0.2896 C   0  0  0  0  0  0  0  0  0  0  0  0
    8.3106   -1.3567    1.6201 C   0  0  0  0  0  0  0  0  0  0  0  0
    7.6468   -2.3217   -0.4187 C   0  0  0  0  0  0  0  0  0  0  0  0
    1.5134    0.6024   -0.6226 C   0  0  0  0  0  0  0  0  0  0  0  0
    4.2741    0.5337   -0.3599 C   0  0  0  0  0  0  0  0  0  0  0  0
    0.2422    3.0672    0.0685 C   0  0  0  0  0  0  0  0  0  0  0  0
    2.2515    1.7790   -0.4767 C   0  0  0  0  0  0  0  0  0  0  0  0
    1.6248    2.9953   -0.1359 C   0  0  0  0  0  0  0  0  0  0  0  0
   -4.4289   -0.7067   -0.0844 C   0  0  0  0  0  0  0  0  0  0  0  0
   -5.2827   -1.5694   -0.7629 C   0  0  0  0  0  0  0  0  0  0  0  0
   -4.9918    0.2034    0.7957 C   0  0  0  0  0  0  0  0  0  0  0  0
   -6.6539   -1.4965   -0.5435 C   0  0  0  0  0  0  0  0  0  0  0  0
   -7.1171   -0.5512    0.3573 C   0  0  0  0  0  0  0  0  0  0  0  0
   -8.5089   -0.4163    0.6361 C   0  0  0  0  0  0  0  0  0  0  0  0
   -2.3086    1.9906    1.1302 H   0  0  0  0  0  0  0  0  0  0  0  0
   -2.5619    2.3556   -0.6309 H   0  0  0  0  0  0  0  0  0  0  0  0
    7.2187    0.3898    2.2206 H   0  0  0  0  0  0  0  0  0  0  0  0
    8.2464    0.6344    0.7927 H   0  0  0  0  0  0  0  0  0  0  0  0
    7.5433   -0.4008   -1.3858 H   0  0  0  0  0  0  0  0  0  0  0  0
    6.0445   -1.3476   -1.4410 H   0  0  0  0  0  0  0  0  0  0  0  0
    6.2139    1.4472   -0.6995 H   0  0  0  0  0  0  0  0  0  0  0  0
    5.6258    1.5153    0.9431 H   0  0  0  0  0  0  0  0  0  0  0  0
    9.1956   -1.1285    2.2224 H   0  0  0  0  0  0  0  0  0  0  0  0
    7.6859   -2.0492    2.1976 H   0  0  0  0  0  0  0  0  0  0  0  0
    6.9991   -3.0470    0.0888 H   0  0  0  0  0  0  0  0  0  0  0  0
    8.0435   -2.8045   -1.3176 H   0  0  0  0  0  0  0  0  0  0  0  0
    1.9537   -0.3456   -0.9085 H   0  0  0  0  0  0  0  0  0  0  0  0
    3.7836    0.0014    0.4665 H   0  0  0  0  0  0  0  0  0  0  0  0
    4.2596   -0.0956   -1.2559 H   0  0  0  0  0  0  0  0  0  0  0  0
   -0.2295    4.0078    0.3305 H   0  0  0  0  0  0  0  0  0  0  0  0
   -0.4187   -2.2998   -0.9684 H   0  0  0  0  0  0  0  0  0  0  0  0
    2.2239    3.8968   -0.0286 H   0  0  0  0  0  0  0  0  0  0  0  0
   -4.9080   -2.3025   -1.4727 H   0  0  0  0  0  0  0  0  0  0  0  0
   -4.3956    0.8973    1.3782 H   0  0  0  0  0  0  0  0  0  0  0  0
   -7.3278   -2.1648   -1.0697 H   0  0  0  0  0  0  0  0  0  0  0  0
  1 17  1  0  0  0  0
  1 18  1  0  0  0  0
  2 20  1  0  0  0  0
  2 22  1  0  0  0  0
  3 13  1  0  0  0  0
  3 14  1  0  0  0  0
  3 15  1  0  0  0  0
  4  5  1  0  0  0  0
  4 12  1  0  0  0  0
  4 46  1  0  0  0  0
  5 16  2  0  0  0  0
  6 26  1  0  0  0  0
  6 28  2  0  0  0  0
  7 29  3  0  0  0  0
  8  9  1  0  0  0  0
  8 10  1  0  0  0  0
  8 30  1  0  0  0  0
  8 31  1  0  0  0  0
  9 12  2  0  0  0  0
  9 16  1  0  0  0  0
 10 11  2  0  0  0  0
 10 21  1  0  0  0  0
 11 12  1  0  0  0  0
 11 19  1  0  0  0  0
 13 17  1  0  0  0  0
 13 32  1  0  0  0  0
 13 33  1  0  0  0  0
 14 18  1  0  0  0  0
 14 34  1  0  0  0  0
 14 35  1  0  0  0  0
 15 20  1  0  0  0  0
 15 36  1  0  0  0  0
 15 37  1  0  0  0  0
 16 24  1  0  0  0  0
 17 38  1  0  0  0  0
 17 39  1  0  0  0  0
 18 40  1  0  0  0  0
 18 41  1  0  0  0  0
 19 22  2  0  0  0  0
 19 42  1  0  0  0  0
 20 43  1  0  0  0  0
 20 44  1  0  0  0  0
 21 23  2  0  0  0  0
 21 45  1  0  0  0  0
 22 23  1  0  0  0  0
 23 47  1  0  0  0  0
 24 25  1  0  0  0  0
 24 26  2  0  0  0  0
 25 27  2  0  0  0  0
 25 48  1  0  0  0  0
 26 49  1  0  0  0  0
 27 28  1  0  0  0  0
 27 50  1  0  0  0  0
 28 29  1  0  0  0  0
M  END
> <PUBCHEM_COMPOUND_CID>
44442347

> <PUBCHEM_CONFORMER_RMSD>
0.8

> <PUBCHEM_CONFORMER_DIVERSEORDER>
1
18
28
83
92
77
85
115
37
48
63
49
32
80
46
114
119
13
54
98
103
95
38
52
58
112
44
89
81
72
40
10
62
12
25
22
2
97
110
16
104
26
59
3
108
20
14
84
42
17
23
106
60
99
4
101
109
68
102
50
87
24
30
75
56
43
71
53
15
19
88
5
66
113
67
39
57
116
69
78
94
65
76
90
45
11
70
74
41
107
82
96
120
47
79
93
51
33
73
31
118
7
64
9
6
55
36
29
100
34
21
86
117
61
91
35
105
8
27
111

> <PUBCHEM_MMFF94_PARTIAL_CHARGES>
36
1 -0.56
10 -0.14
11 0.05
12 -0.2
13 0.27
14 0.27
15 0.27
16 0.23
17 0.28
18 0.28
19 -0.15
2 -0.36
20 0.28
21 -0.15
22 0.08
23 -0.15
24 0.05
25 -0.15
26 0.16
27 -0.15
28 0.38
29 0.48
3 -0.81
4 0.3
42 0.15
45 0.15
46 0.27
47 0.15
48 0.15
49 0.15
5 -0.71
50 0.15
6 -0.62
7 -0.56
8 0.32
9 -0.18

> <PUBCHEM_EFFECTIVE_ROTOR_COUNT>
6.4

> <PUBCHEM_PHARMACOPHORE_FEATURES>
12
1 1 acceptor
1 2 acceptor
1 3 cation
1 4 donor
1 5 acceptor
1 6 acceptor
1 7 acceptor
5 4 5 9 12 16 rings
5 8 9 10 11 12 rings
6 1 3 13 14 17 18 rings
6 10 11 19 21 22 23 rings
6 6 24 25 26 27 28 rings

> <PUBCHEM_HEAVY_ATOM_COUNT>
29

> <PUBCHEM_ATOM_DEF_STEREO_COUNT>
0

> <PUBCHEM_ATOM_UDEF_STEREO_COUNT>
0

> <PUBCHEM_BOND_DEF_STEREO_COUNT>
0

> <PUBCHEM_BOND_UDEF_STEREO_COUNT>
0

> <PUBCHEM_ISOTOPIC_ATOM_COUNT>
0

> <PUBCHEM_COMPONENT_COUNT>
1

> <PUBCHEM_CACTVS_TAUTO_COUNT>
2

> <PUBCHEM_CONFORMER_ID>
02A622EB00000001

> <PUBCHEM_MMFF94_ENERGY>
91.444

> <PUBCHEM_FEATURE_SELFOVERLAP>
61.238

> <PUBCHEM_SHAPE_FINGERPRINT>
10 15 13614522961212472612
10209105 3 18264767666899589726
10429389 143 13398638230002925499
10753850 27 18186515506513890772
11135926 11 18412256230144071895
11456790 92 17988936591333475689
11476731 38 18114187463123419708
11973863 73 17968372330094635064
12144603 126 18339647845289260444
12592606 108 18409166644912934095
12655364 131 18199484198539723699
12758862 56 18335418001938330609
13673619 4 17822005415583645228
13685833 64 18334574647040630076
14202775 3 18114468976734516891
14216079 64 18409449176804748134
14347424 109 18202281450868242992
14428016 204 12823010963358194648
14444916 359 17312822684709872635
15064981 194 9942937037202585768
15131766 46 15695721572065484408
15198563 99 16298371449690269423
15419008 145 18340773659450037041
16994733 274 12103578467379496247
1754911 235 8070029964845398235
19301679 30 18341898438179861332
19841028 212 18260266374180639522
20105231 36 16298389076468179419
2026 5 18114175277695117674
21130935 74 18198339761400374483
21267235 1 18335422357288551108
21365058 113 16660647396663756933
21792934 111 18272365373556449641
21792961 116 18114453493012579605
23522609 53 18121813678872220852
23559900 14 18191020312294062805
23569917 315 18339363093337652535
23576562 1 11026102181962824707
25025965 108 17986104335481578823
28498 318 18333167276035319429
335352 9 18341619269379185805
3383291 50 18407758140585202130
3472631 163 9079108982684181104
3918712 181 9583220740457285662
3986486 107 12901542392041272006
4112364 45 13398338131931773824
4258327 124 11527656536176908146
437795 160 16487248916069895975
439807 62 18186522103541322990
4403749 210 12319444528735792549
5047190 47 7781214636261975382
5104073 3 17986119732278600761
5381727 24 18411982491041575683
54039377 194 18261394421724259910
5470011 282 16877950447441368022
59682541 52 14056997197255239440
6138700 20 18408603664883938887
6712543 237 16774076272165828686

> <PUBCHEM_SHAPE_MULTIPOLES>
560.16
28.24
2.61
1
9.05
1.27
0.22
-20.46
9.95
2.86
-0.32
0.69
-0.23
-1.12

> <PUBCHEM_SHAPE_SELFOVERLAP>
1239.727

> <PUBCHEM_SHAPE_VOLUME>
298.5

> <PUBCHEM_COORDINATE_TYPE>
2
5
10

$$$$
