49830886
  -OEChem-10062121543D

 44 48  0     0  0  0  0  0  0999 V2000
   -1.9035   -4.2663   -0.0329 S   0  0  0  0  0  0  0  0  0  0  0  0
   -2.7740    2.3526    0.2986 N   0  0  0  0  0  0  0  0  0  0  0  0
   -1.8804    1.3516    0.2235 N   0  0  0  0  0  0  0  0  0  0  0  0
   -2.1931   -1.0726    0.1240 N   0  0  0  0  0  0  0  0  0  0  0  0
    0.1738   -0.8329    0.0545 N   0  0  0  0  0  0  0  0  0  0  0  0
    2.4938   -0.5513   -0.0099 N   0  0  0  0  0  0  0  0  0  0  0  0
    1.6650   -2.7341   -0.0845 N   0  0  0  0  0  0  0  0  0  0  0  0
   -5.3124    2.8119    0.4064 C   0  0  0  0  0  0  0  0  0  0  0  0
   -6.3702    2.6657   -0.6479 C   0  0  0  0  0  0  0  0  0  0  0  0
   -5.5017    3.8892   -0.6209 C   0  0  0  0  0  0  0  0  0  0  0  0
   -4.0715    1.9323    0.3238 C   0  0  0  0  0  0  0  0  0  0  0  0
   -4.0232    0.5612    0.2605 C   0  0  0  0  0  0  0  0  0  0  0  0
   -2.6493    0.2597    0.2005 C   0  0  0  0  0  0  0  0  0  0  0  0
   -0.9065   -1.6388    0.0543 C   0  0  0  0  0  0  0  0  0  0  0  0
   -0.7286   -3.0155   -0.0154 C   0  0  0  0  0  0  0  0  0  0  0  0
    0.5644   -3.5326   -0.0836 C   0  0  0  0  0  0  0  0  0  0  0  0
    1.3814   -1.4229   -0.0142 C   0  0  0  0  0  0  0  0  0  0  0  0
    2.3633    0.8697    0.0606 C   0  0  0  0  0  0  0  0  0  0  0  0
    0.5655   -4.9580   -0.1492 C   0  0  0  0  0  0  0  0  0  0  0  0
    3.7151    1.5263    0.0104 C   0  0  0  0  0  0  0  0  0  0  0  0
   -0.7067   -5.4824   -0.1301 C   0  0  0  0  0  0  0  0  0  0  0  0
    4.4127    1.7778    1.1918 C   0  0  0  0  0  0  0  0  0  0  0  0
    4.2712    1.8840   -1.2177 C   0  0  0  0  0  0  0  0  0  0  0  0
    5.6667    2.3872    1.1450 C   0  0  0  0  0  0  0  0  0  0  0  0
    5.5251    2.4933   -1.2645 C   0  0  0  0  0  0  0  0  0  0  0  0
    6.2228    2.7449   -0.0831 C   0  0  0  0  0  0  0  0  0  0  0  0
   -5.6500    3.0307    1.4137 H   0  0  0  0  0  0  0  0  0  0  0  0
   -7.4040    2.7752   -0.3429 H   0  0  0  0  0  0  0  0  0  0  0  0
   -6.2187    1.9633   -1.4585 H   0  0  0  0  0  0  0  0  0  0  0  0
   -5.9526    4.8199   -0.2981 H   0  0  0  0  0  0  0  0  0  0  0  0
   -4.7695    4.0009   -1.4114 H   0  0  0  0  0  0  0  0  0  0  0  0
   -4.8635   -0.1189    0.2587 H   0  0  0  0  0  0  0  0  0  0  0  0
   -2.4275    3.3034    0.3293 H   0  0  0  0  0  0  0  0  0  0  0  0
   -2.9133   -1.7938    0.1154 H   0  0  0  0  0  0  0  0  0  0  0  0
    1.8502    1.1662    0.9845 H   0  0  0  0  0  0  0  0  0  0  0  0
    1.7500    1.2456   -0.7686 H   0  0  0  0  0  0  0  0  0  0  0  0
    3.4072   -0.9890   -0.0572 H   0  0  0  0  0  0  0  0  0  0  0  0
    1.4567   -5.5699   -0.2079 H   0  0  0  0  0  0  0  0  0  0  0  0
   -0.9897   -6.5249   -0.1685 H   0  0  0  0  0  0  0  0  0  0  0  0
    3.9909    1.5022    2.1547 H   0  0  0  0  0  0  0  0  0  0  0  0
    3.7384    1.6917   -2.1452 H   0  0  0  0  0  0  0  0  0  0  0  0
    6.2103    2.5827    2.0648 H   0  0  0  0  0  0  0  0  0  0  0  0
    5.9585    2.7714   -2.2207 H   0  0  0  0  0  0  0  0  0  0  0  0
    7.1992    3.2192   -0.1196 H   0  0  0  0  0  0  0  0  0  0  0  0
  1 15  1  0  0  0  0
  1 21  1  0  0  0  0
  2  3  1  0  0  0  0
  2 11  1  0  0  0  0
  2 33  1  0  0  0  0
  3 13  2  0  0  0  0
  4 13  1  0  0  0  0
  4 14  1  0  0  0  0
  4 34  1  0  0  0  0
  5 14  2  0  0  0  0
  5 17  1  0  0  0  0
  6 17  1  0  0  0  0
  6 18  1  0  0  0  0
  6 37  1  0  0  0  0
  7 16  1  0  0  0  0
  7 17  2  0  0  0  0
  8  9  1  0  0  0  0
  8 10  1  0  0  0  0
  8 11  1  0  0  0  0
  8 27  1  0  0  0  0
  9 10  1  0  0  0  0
  9 28  1  0  0  0  0
  9 29  1  0  0  0  0
 10 30  1  0  0  0  0
 10 31  1  0  0  0  0
 11 12  2  0  0  0  0
 12 13  1  0  0  0  0
 12 32  1  0  0  0  0
 14 15  1  0  0  0  0
 15 16  2  0  0  0  0
 16 19  1  0  0  0  0
 18 20  1  0  0  0  0
 18 35  1  0  0  0  0
 18 36  1  0  0  0  0
 19 21  2  0  0  0  0
 19 38  1  0  0  0  0
 20 22  2  0  0  0  0
 20 23  1  0  0  0  0
 21 39  1  0  0  0  0
 22 24  1  0  0  0  0
 22 40  1  0  0  0  0
 23 25  2  0  0  0  0
 23 41  1  0  0  0  0
 24 26  2  0  0  0  0
 24 42  1  0  0  0  0
 25 26  1  0  0  0  0
 25 43  1  0  0  0  0
 26 44  1  0  0  0  0
M  END
> <PUBCHEM_COMPOUND_CID>
49830886

> <PUBCHEM_CONFORMER_RMSD>
1

> <PUBCHEM_CONFORMER_DIVERSEORDER>
1
69
37
40
56
79
8
57
84
48
41
86
6
45
24
58
77
3
27
87
76
68
5
52
17
11
63
65
31
12
14
59
34
18
85
72
66
23
20
50
13
38
46
47
61
73
51
22
25
80
28
60
2
7
71
83
82
54
21
44
43
75
70
42
62
32
74
30
78
10
39
35
9
81
36
15
64
19
4
55
49
29
26
33
67
16
88
53

> <PUBCHEM_MMFF94_PARTIAL_CHARGES>
42
1 -0.08
10 -0.2
11 -0.24
12 -0.15
13 0.37
14 0.41
15 0.04
16 0.26
17 0.72
18 0.51
19 -0.15
2 0.3
20 -0.14
21 -0.11
22 -0.15
23 -0.15
24 -0.15
25 -0.15
26 -0.15
27 0.1
28 0.1
29 0.1
3 -0.71
30 0.1
31 0.1
32 0.15
33 0.27
34 0.4
37 0.4
38 0.15
39 0.15
4 -0.58
40 0.15
41 0.15
42 0.15
43 0.15
44 0.15
5 -0.62
6 -0.87
7 -0.57
8 -0.01
9 -0.2

> <PUBCHEM_EFFECTIVE_ROTOR_COUNT>
6.6

> <PUBCHEM_PHARMACOPHORE_FEATURES>
9
1 2 donor
1 4 donor
1 6 donor
3 3 4 13 cation
4 5 6 7 17 cation
5 1 15 16 19 21 rings
5 2 3 11 12 13 rings
6 20 22 23 24 25 26 rings
6 5 7 14 15 16 17 rings

> <PUBCHEM_HEAVY_ATOM_COUNT>
26

> <PUBCHEM_ATOM_DEF_STEREO_COUNT>
0

> <PUBCHEM_ATOM_UDEF_STEREO_COUNT>
0

> <PUBCHEM_BOND_DEF_STEREO_COUNT>
0

> <PUBCHEM_BOND_UDEF_STEREO_COUNT>
0

> <PUBCHEM_ISOTOPIC_ATOM_COUNT>
0

> <PUBCHEM_COMPONENT_COUNT>
1

> <PUBCHEM_CACTVS_TAUTO_COUNT>
57

> <PUBCHEM_CONFORMER_ID>
02F85BE600000001

> <PUBCHEM_MMFF94_ENERGY>
59.2288

> <PUBCHEM_FEATURE_SELFOVERLAP>
45.751

> <PUBCHEM_SHAPE_FINGERPRINT>
10411042 1 17114101063205035187
10937287 8 18411419496845673423
11056379 131 18050574233660039446
11059845 2 18195218166938823096
12107183 9 18335406964700769306
12293681 160 17917997165412425072
12788726 201 17974279134498802234
138480 1 17690564078596793563
13944108 23 17831589673664715028
13955234 65 18050010995943627779
14251764 75 18270409282784633977
14294032 229 18266753548234035579
14508225 48 17406830060752959983
14849402 71 18051135791527124811
15198563 99 17908705373451564775
15230672 131 18409174312468794430
15400415 2 18410855451581802385
15419008 42 18059310824716551862
15420108 30 18335131008092330078
15439362 3 18411700942422115038
15513586 35 16809274022772228764
16087824 20 18195247944254060047
16988056 13 17543906811042310668
16990350 14 18123193403009315560
17980427 26 18268980995240671055
19319366 153 18199740363104794573
19427546 62 18337671889444133915
21033650 10 17901408980541203892
21133410 127 17969788475413203468
21133410 221 17127303341791032536
21304303 282 18269544091318127183
23559900 14 17905607706009834867
23845131 108 18408882919589553835
23929065 36 17910375510101753250
3103668 31 18049999189258431335
3627633 1 17690561205211347295
376196 1 18261675853266332451
4058900 60 18340216180371996313
508706 21 17984413307359615296
5219985 13 18410573985273147485
57124632 79 18266735792554611601
6058803 2 17841704111899934473
6327066 14 18408602577983458773
6695519 79 18196682677629987731
7288768 16 18186238446214902091
77188 2 17329992395705353559
7808743 9 18338236084806131000
9849439 229 18410570682369424089
9961470 85 18341887490313362314
9981440 41 18408606972072047979

> <PUBCHEM_SHAPE_MULTIPOLES>
509.03
13.75
7.83
0.89
5.15
10.89
0.04
-27.21
0.83
-5.7
0.8
0.92
-0.6
0.36

> <PUBCHEM_SHAPE_SELFOVERLAP>
1105.409

> <PUBCHEM_SHAPE_VOLUME>
279.2

> <PUBCHEM_COORDINATE_TYPE>
2
5
10

$$$$
