49831038
  -OEChem-10052115183D

 54 57  0     0  0  0  0  0  0999 V2000
    2.6277    1.5303    0.5623 O   0  0  0  0  0  0  0  0  0  0  0  0
    3.8527   -0.0850   -0.5665 O   0  0  0  0  0  0  0  0  0  0  0  0
   -2.7734   -0.1759    0.7464 N   0  0  0  0  0  0  0  0  0  0  0  0
   -3.6625   -1.5221    2.2726 N   0  0  0  0  0  0  0  0  0  0  0  0
    1.6821   -0.4673    0.0678 N   0  0  0  0  0  0  0  0  0  0  0  0
   -2.6770    0.9545   -0.2620 C   0  0  0  0  0  0  0  0  0  0  0  0
   -3.6508    0.7586   -1.4373 C   0  0  0  0  0  0  0  0  0  0  0  0
   -2.8802    2.3293    0.3984 C   0  0  0  0  0  0  0  0  0  0  0  0
   -3.5392    1.8966   -2.4506 C   0  0  0  0  0  0  0  0  0  0  0  0
   -2.7719    3.4608   -0.6225 C   0  0  0  0  0  0  0  0  0  0  0  0
   -3.7324    3.2589   -1.7909 C   0  0  0  0  0  0  0  0  0  0  0  0
   -1.7870   -1.0577    1.0878 C   0  0  0  0  0  0  0  0  0  0  0  0
   -3.8804   -0.4938    1.4831 C   0  0  0  0  0  0  0  0  0  0  0  0
   -0.4154   -1.1149    0.5620 C   0  0  0  0  0  0  0  0  0  0  0  0
   -2.3593   -1.8784    2.0308 C   0  0  0  0  0  0  0  0  0  0  0  0
    0.2177   -2.1807   -0.1194 C   0  0  0  0  0  0  0  0  0  0  0  0
    0.4912   -0.0897    0.6634 C   0  0  0  0  0  0  0  0  0  0  0  0
    1.5224   -1.7678   -0.4229 C   0  0  0  0  0  0  0  0  0  0  0  0
   -0.2111   -3.4679   -0.5061 C   0  0  0  0  0  0  0  0  0  0  0  0
    2.4065   -2.6231   -1.1079 C   0  0  0  0  0  0  0  0  0  0  0  0
    2.8399    0.3238   -0.0230 C   0  0  0  0  0  0  0  0  0  0  0  0
    3.7423    2.4268    0.5306 C   0  0  0  0  0  0  0  0  0  0  0  0
    0.6679   -4.3136   -1.1854 C   0  0  0  0  0  0  0  0  0  0  0  0
    1.9589   -3.8946   -1.4812 C   0  0  0  0  0  0  0  0  0  0  0  0
    4.9085    1.7797    1.2763 C   0  0  0  0  0  0  0  0  0  0  0  0
    3.3132    3.7189    1.2224 C   0  0  0  0  0  0  0  0  0  0  0  0
    4.1096    2.6944   -0.9282 C   0  0  0  0  0  0  0  0  0  0  0  0
   -1.6587    0.9069   -0.6612 H   0  0  0  0  0  0  0  0  0  0  0  0
   -4.6832    0.7047   -1.0696 H   0  0  0  0  0  0  0  0  0  0  0  0
   -3.4470   -0.1972   -1.9352 H   0  0  0  0  0  0  0  0  0  0  0  0
   -2.1348    2.4769    1.1892 H   0  0  0  0  0  0  0  0  0  0  0  0
   -3.8633    2.3757    0.8835 H   0  0  0  0  0  0  0  0  0  0  0  0
   -4.2862    1.7603   -3.2406 H   0  0  0  0  0  0  0  0  0  0  0  0
   -2.5542    1.8602   -2.9321 H   0  0  0  0  0  0  0  0  0  0  0  0
   -1.7432    3.5132   -0.9999 H   0  0  0  0  0  0  0  0  0  0  0  0
   -2.9820    4.4188   -0.1338 H   0  0  0  0  0  0  0  0  0  0  0  0
   -3.5823    4.0517   -2.5323 H   0  0  0  0  0  0  0  0  0  0  0  0
   -4.7656    3.3473   -1.4329 H   0  0  0  0  0  0  0  0  0  0  0  0
   -4.8107    0.0519    1.4059 H   0  0  0  0  0  0  0  0  0  0  0  0
   -1.9046   -2.7090    2.5523 H   0  0  0  0  0  0  0  0  0  0  0  0
    0.3819    0.8869    1.1180 H   0  0  0  0  0  0  0  0  0  0  0  0
   -1.2184   -3.8094   -0.2836 H   0  0  0  0  0  0  0  0  0  0  0  0
    3.4198   -2.3254   -1.3533 H   0  0  0  0  0  0  0  0  0  0  0  0
    0.3385   -5.3048   -1.4841 H   0  0  0  0  0  0  0  0  0  0  0  0
    2.6328   -4.5632   -2.0107 H   0  0  0  0  0  0  0  0  0  0  0  0
    5.6867    2.5222    1.4892 H   0  0  0  0  0  0  0  0  0  0  0  0
    5.4055    0.9760    0.7272 H   0  0  0  0  0  0  0  0  0  0  0  0
    4.5758    1.3577    2.2318 H   0  0  0  0  0  0  0  0  0  0  0  0
    4.1189    4.4600    1.2386 H   0  0  0  0  0  0  0  0  0  0  0  0
    2.4461    4.1600    0.7175 H   0  0  0  0  0  0  0  0  0  0  0  0
    3.0025    3.5218    2.2549 H   0  0  0  0  0  0  0  0  0  0  0  0
    4.7726    3.5647   -1.0028 H   0  0  0  0  0  0  0  0  0  0  0  0
    3.2146    2.9019   -1.5262 H   0  0  0  0  0  0  0  0  0  0  0  0
    4.6409    1.8746   -1.4182 H   0  0  0  0  0  0  0  0  0  0  0  0
  1 21  1  0  0  0  0
  1 22  1  0  0  0  0
  2 21  2  0  0  0  0
  3  6  1  0  0  0  0
  3 12  1  0  0  0  0
  3 13  1  0  0  0  0
  4 13  2  0  0  0  0
  4 15  1  0  0  0  0
  5 17  1  0  0  0  0
  5 18  1  0  0  0  0
  5 21  1  0  0  0  0
  6  7  1  0  0  0  0
  6  8  1  0  0  0  0
  6 28  1  0  0  0  0
  7  9  1  0  0  0  0
  7 29  1  0  0  0  0
  7 30  1  0  0  0  0
  8 10  1  0  0  0  0
  8 31  1  0  0  0  0
  8 32  1  0  0  0  0
  9 11  1  0  0  0  0
  9 33  1  0  0  0  0
  9 34  1  0  0  0  0
 10 11  1  0  0  0  0
 10 35  1  0  0  0  0
 10 36  1  0  0  0  0
 11 37  1  0  0  0  0
 11 38  1  0  0  0  0
 12 14  1  0  0  0  0
 12 15  2  0  0  0  0
 13 39  1  0  0  0  0
 14 16  1  0  0  0  0
 14 17  2  0  0  0  0
 15 40  1  0  0  0  0
 16 18  1  0  0  0  0
 16 19  2  0  0  0  0
 17 41  1  0  0  0  0
 18 20  2  0  0  0  0
 19 23  1  0  0  0  0
 19 42  1  0  0  0  0
 20 24  1  0  0  0  0
 20 43  1  0  0  0  0
 22 25  1  0  0  0  0
 22 26  1  0  0  0  0
 22 27  1  0  0  0  0
 23 24  2  0  0  0  0
 23 44  1  0  0  0  0
 24 45  1  0  0  0  0
 25 46  1  0  0  0  0
 25 47  1  0  0  0  0
 25 48  1  0  0  0  0
 26 49  1  0  0  0  0
 26 50  1  0  0  0  0
 26 51  1  0  0  0  0
 27 52  1  0  0  0  0
 27 53  1  0  0  0  0
 27 54  1  0  0  0  0
M  END
> <PUBCHEM_COMPOUND_CID>
49831038

> <PUBCHEM_CONFORMER_RMSD>
0.8

> <PUBCHEM_CONFORMER_DIVERSEORDER>
1
92
74
22
104
80
51
39
29
35
23
60
53
87
62
55
12
47
72
17
68
94
78
70
66
81
93
89
4
75
31
101
49
95
105
24
32
91
19
56
7
65
50
46
110
52
108
73
40
8
90
10
38
71
27
102
6
88
28
76
97
69
16
106
41
36
34
21
11
44
107
99
79
33
30
14
13
82
100
61
59
84
64
54
9
3
48
18
57
37
86
83
98
85
109
20
45
67
15
2
96
42
5
58
43
77
103
63
25
26

> <PUBCHEM_MMFF94_PARTIAL_CHARGES>
24
1 -0.43
12 -0.15
13 0.04
15 0.08
17 -0.3
18 -0.15
19 -0.15
2 -0.57
20 -0.15
21 0.73
22 0.28
23 -0.15
24 -0.15
3 0.05
39 0.15
4 -0.57
40 0.15
41 0.15
42 0.15
43 0.15
44 0.15
45 0.15
5 0.29
6 0.26

> <PUBCHEM_EFFECTIVE_ROTOR_COUNT>
6.2

> <PUBCHEM_PHARMACOPHORE_FEATURES>
7
1 2 acceptor
3 3 4 13 cation
4 22 25 26 27 hydrophobe
5 3 4 12 13 15 rings
5 5 14 16 17 18 rings
6 16 18 19 20 23 24 rings
6 6 7 8 9 10 11 rings

> <PUBCHEM_HEAVY_ATOM_COUNT>
27

> <PUBCHEM_ATOM_DEF_STEREO_COUNT>
0

> <PUBCHEM_ATOM_UDEF_STEREO_COUNT>
0

> <PUBCHEM_BOND_DEF_STEREO_COUNT>
0

> <PUBCHEM_BOND_UDEF_STEREO_COUNT>
0

> <PUBCHEM_ISOTOPIC_ATOM_COUNT>
0

> <PUBCHEM_COMPONENT_COUNT>
1

> <PUBCHEM_CACTVS_TAUTO_COUNT>
1

> <PUBCHEM_CONFORMER_ID>
02F85C7E00000001

> <PUBCHEM_MMFF94_ENERGY>
57.1851

> <PUBCHEM_FEATURE_SELFOVERLAP>
35.611

> <PUBCHEM_SHAPE_FINGERPRINT>
10165383 225 17983602928550498392
10670039 82 18043269014001984812
10764073 3 17463665634227992538
10871710 139 17039521752159598252
11221954 11 18262232227408350529
11297750 10 18046660869808496315
11582403 64 17971442239531793595
11595378 159 17604991610079993912
12160290 23 17413008148249511010
12758862 65 14014960444726642268
13134695 92 17837212575933989206
13583140 156 17750216149590234762
13642711 20 18128837273576974006
13911987 19 18199754811100705777
14400156 96 17763513609442818105
14468879 13 18334568049606977009
14932701 244 16125541591504511504
15775530 1 18262813856185163355
17974551 9 17241313669247386826
17980427 23 17687140306830536995
20567600 299 18125996075338253180
21033648 144 17841143665612097744
21033648 29 18271521000656678912
21860390 5 17979905021785352838
22182313 1 18336276664532294710
2260408 40 17836130897854517243
23557571 272 17895212008036502627
23559900 14 18195806258723504466
238 59 18271231717159859271
25019877 29 16911468130804930903
26353 1 17123399675821329958
3187 122 17750803331907811097
376196 1 18117251723650098325
46194498 28 18197208158151496759
469060 322 18051971712896991719
5252454 2 18054801842978655320
550186 7 17896615066319375690
59025328 239 17051303615924644775
621550 34 18338815484589914635
633830 44 17488766552259845402
6608658 132 16966607651733845868
7226269 152 17252587876816970258
7399639 24 18337966670134679747
9862522 239 18266173018816058226
9925002 15 17258508162768856391
9981440 41 18267281236289977857

> <PUBCHEM_SHAPE_MULTIPOLES>
528.97
8.67
5.8
1.94
1.44
1.29
-0.01
-8.91
-0.02
2.95
2.05
-2.01
0.12
4.38

> <PUBCHEM_SHAPE_SELFOVERLAP>
1143.811

> <PUBCHEM_SHAPE_VOLUME>
294

> <PUBCHEM_COORDINATE_TYPE>
2
5
10

$$$$
