3133620
  -OEChem-10052120443D

 42 45  0     0  0  0  0  0  0999 V2000
   -6.7511    0.7651   -0.0010 O   0  0  0  0  0  0  0  0  0  0  0  0
    1.4726   -0.9932   -0.0011 N   0  0  0  0  0  0  0  0  0  0  0  0
    0.6565   -2.0610   -0.0026 N   0  0  0  0  0  0  0  0  0  0  0  0
    1.7757    1.3312   -0.0010 N   0  0  0  0  0  0  0  0  0  0  0  0
   -0.1399    2.7933   -0.0035 N   0  0  0  0  0  0  0  0  0  0  0  0
   -2.3347    1.8700   -0.0033 N   0  0  0  0  0  0  0  0  0  0  0  0
   -3.1735    0.8396   -0.0009 N   0  0  0  0  0  0  0  0  0  0  0  0
    2.8004   -1.3115   -0.0002 C   0  0  0  0  0  0  0  0  0  0  0  0
    3.8743   -0.3480    0.0014 C   0  0  0  0  0  0  0  0  0  0  0  0
    2.8537   -2.6855   -0.0006 C   0  0  0  0  0  0  0  0  0  0  0  0
    1.5058   -3.0917   -0.0023 C   0  0  0  0  0  0  0  0  0  0  0  0
    0.9240    0.2907   -0.0008 C   0  0  0  0  0  0  0  0  0  0  0  0
    4.3947    0.1183   -1.2059 C   0  0  0  0  0  0  0  0  0  0  0  0
    4.3918    0.1176    1.2101 C   0  0  0  0  0  0  0  0  0  0  0  0
    0.9844   -4.4690   -0.0046 C   0  0  0  0  0  0  0  0  0  0  0  0
   -0.4465    0.4058   -0.0019 C   0  0  0  0  0  0  0  0  0  0  0  0
    5.4325    1.0501   -1.2044 C   0  0  0  0  0  0  0  0  0  0  0  0
    5.4298    1.0494    1.2114 C   0  0  0  0  0  0  0  0  0  0  0  0
   -0.9289    1.6987   -0.0033 C   0  0  0  0  0  0  0  0  0  0  0  0
    5.9502    1.5158    0.0042 C   0  0  0  0  0  0  0  0  0  0  0  0
    1.1828    2.5403   -0.0023 C   0  0  0  0  0  0  0  0  0  0  0  0
   -5.5200    0.2462    0.0012 C   0  0  0  0  0  0  0  0  0  0  0  0
   -4.4109    1.2163   -0.0015 C   0  0  0  0  0  0  0  0  0  0  0  0
   -5.4911   -1.0960    0.0053 C   0  0  0  0  0  0  0  0  0  0  0  0
   -6.8531   -1.4803    0.0059 C   0  0  0  0  0  0  0  0  0  0  0  0
   -7.5795   -0.3123    0.0018 C   0  0  0  0  0  0  0  0  0  0  0  0
    3.7402   -3.3040   -0.0001 H   0  0  0  0  0  0  0  0  0  0  0  0
    4.0019   -0.2339   -2.1568 H   0  0  0  0  0  0  0  0  0  0  0  0
    3.9969   -0.2352    2.1599 H   0  0  0  0  0  0  0  0  0  0  0  0
    0.3722   -4.6494   -0.8943 H   0  0  0  0  0  0  0  0  0  0  0  0
    1.7968   -5.2029   -0.0024 H   0  0  0  0  0  0  0  0  0  0  0  0
    0.3666   -4.6503    0.8810 H   0  0  0  0  0  0  0  0  0  0  0  0
   -1.1115   -0.4485   -0.0017 H   0  0  0  0  0  0  0  0  0  0  0  0
    5.8373    1.4137   -2.1444 H   0  0  0  0  0  0  0  0  0  0  0  0
    5.8325    1.4124    2.1525 H   0  0  0  0  0  0  0  0  0  0  0  0
    6.7579    2.2417    0.0053 H   0  0  0  0  0  0  0  0  0  0  0  0
    1.8405    3.4008   -0.0024 H   0  0  0  0  0  0  0  0  0  0  0  0
   -2.6636    2.8297   -0.0040 H   0  0  0  0  0  0  0  0  0  0  0  0
   -4.7080    2.2825   -0.0042 H   0  0  0  0  0  0  0  0  0  0  0  0
   -4.6272   -1.7450    0.0076 H   0  0  0  0  0  0  0  0  0  0  0  0
   -7.2553   -2.4831    0.0088 H   0  0  0  0  0  0  0  0  0  0  0  0
   -8.6365   -0.0891    0.0006 H   0  0  0  0  0  0  0  0  0  0  0  0
  1 22  1  0  0  0  0
  1 26  1  0  0  0  0
  2  3  1  0  0  0  0
  2  8  1  0  0  0  0
  2 12  1  0  0  0  0
  3 11  2  0  0  0  0
  4 12  2  0  0  0  0
  4 21  1  0  0  0  0
  5 19  1  0  0  0  0
  5 21  2  0  0  0  0
  6  7  1  0  0  0  0
  6 19  1  0  0  0  0
  6 38  1  0  0  0  0
  7 23  2  3  0  0  0
  8  9  1  0  0  0  0
  8 10  2  0  0  0  0
  9 13  2  0  0  0  0
  9 14  1  0  0  0  0
 10 11  1  0  0  0  0
 10 27  1  0  0  0  0
 11 15  1  0  0  0  0
 12 16  1  0  0  0  0
 13 17  1  0  0  0  0
 13 28  1  0  0  0  0
 14 18  2  0  0  0  0
 14 29  1  0  0  0  0
 15 30  1  0  0  0  0
 15 31  1  0  0  0  0
 15 32  1  0  0  0  0
 16 19  2  0  0  0  0
 16 33  1  0  0  0  0
 17 20  2  0  0  0  0
 17 34  1  0  0  0  0
 18 20  1  0  0  0  0
 18 35  1  0  0  0  0
 20 36  1  0  0  0  0
 21 37  1  0  0  0  0
 22 23  1  0  0  0  0
 22 24  2  0  0  0  0
 23 39  1  0  0  0  0
 24 25  1  0  0  0  0
 24 40  1  0  0  0  0
 25 26  2  0  0  0  0
 25 41  1  0  0  0  0
 26 42  1  0  0  0  0
M  END
> <PUBCHEM_COMPOUND_CID>
3133620

> <PUBCHEM_CONFORMER_RMSD>
0.8

> <PUBCHEM_CONFORMER_DIVERSEORDER>
1
14
26
32
28
33
9
30
25
23
13
17
24
18
21
5
19
10
12
15
8
29
22
2
11
27
16
20
7
6
31
3
4

> <PUBCHEM_MMFF94_PARTIAL_CHARGES>
39
1 -0.28
10 -0.15
11 0.11
12 0.29
13 -0.15
14 -0.15
15 0.18
16 -0.15
17 -0.15
18 -0.15
19 0.41
2 0.59
20 -0.15
21 0.47
22 0.05
23 0.47
24 -0.15
25 -0.15
26 -0.01
27 0.15
28 0.15
29 0.15
3 -0.71
33 0.15
34 0.15
35 0.15
36 0.15
37 0.15
38 0.4
39 0.06
4 -0.62
40 0.15
41 0.15
42 0.15
5 -0.62
6 -0.46
7 -0.49
8 -0.2
9 0.05

> <PUBCHEM_EFFECTIVE_ROTOR_COUNT>
5

> <PUBCHEM_PHARMACOPHORE_FEATURES>
10
1 1 acceptor
1 3 acceptor
1 6 donor
1 7 acceptor
3 2 4 12 cation
3 4 5 21 cation
5 1 22 24 25 26 rings
5 2 3 8 10 11 rings
6 4 5 12 16 19 21 rings
6 9 13 14 17 18 20 rings

> <PUBCHEM_HEAVY_ATOM_COUNT>
26

> <PUBCHEM_ATOM_DEF_STEREO_COUNT>
0

> <PUBCHEM_ATOM_UDEF_STEREO_COUNT>
0

> <PUBCHEM_BOND_DEF_STEREO_COUNT>
0

> <PUBCHEM_BOND_UDEF_STEREO_COUNT>
1

> <PUBCHEM_ISOTOPIC_ATOM_COUNT>
0

> <PUBCHEM_COMPONENT_COUNT>
1

> <PUBCHEM_CACTVS_TAUTO_COUNT>
3

> <PUBCHEM_CONFORMER_ID>
002FD0B400000001

> <PUBCHEM_MMFF94_ENERGY>
65.7544

> <PUBCHEM_FEATURE_SELFOVERLAP>
50.891

> <PUBCHEM_SHAPE_FINGERPRINT>
10090160 65 18261108552426163324
10258939 38 17822284657040549217
10316853 100 18339641247686334544
10319688 45 16678650439211889146
10835480 77 18335974260929427021
10906281 52 18188507825224163401
11443803 9 18187650245843184764
11719270 70 18409163316181144611
11963148 33 18334849541553424563
12516196 113 18342458145227473081
12596602 18 17418098698180808881
13402501 40 18334296483330983915
1361 2 18409451396748796496
1454969 45 18408605889492563908
14617045 38 18412547617651502319
14790565 3 18338240478494546588
14863182 85 18336836311909047358
15183329 4 9007061287844146211
15483637 11 18121218942614765419
15537594 2 18130781261822292687
15927050 60 17764589120144788420
16728300 4 17462534271470669554
17492 89 18049720720104517742
20028762 73 18272372017954966895
20286276 3 17908144278575426133
21197605 99 18412262873883465155
21344244 181 17703243853469541694
21344244 246 18056774131180706878
21521721 280 18271527597430728000
21623969 137 18335420171076214395
21781051 124 18333740122031611066
22149856 69 18340497668766248577
22224240 67 18342731949149779392
22956985 138 17828190009803461914
23559900 14 17833822777511504042
23569917 315 18411142403406440162
24771293 8 17986093331278682024
25222932 49 18343015584627097567
3178227 256 18339089288775737353
4073 2 18261118457164307555
4325135 7 18187085056972131869
4340502 62 18413384341694495694
437795 51 17417524834488921104
4461854 278 17702112559311187215
46194498 28 17676209091603903157
5104073 3 18198899202275844833
5486654 2 18411142463186848380
58260988 647 16486153712267574214
59755656 215 18410575102138353729
70251023 43 17913218568178370150
8988823 20 15430035461711656764

> <PUBCHEM_SHAPE_MULTIPOLES>
499.31
17.23
3.58
0.83
29.97
3.79
0
-2.22
0.03
-1.96
-0.01
-1.19
-0.12
0.01

> <PUBCHEM_SHAPE_SELFOVERLAP>
1107.169

> <PUBCHEM_SHAPE_VOLUME>
266.7

> <PUBCHEM_COORDINATE_TYPE>
2
5
10

$$$$
