9927943
  -OEChem-10052120443D

 44 46  0     0  0  0  0  0  0999 V2000
    0.5022    0.1930    1.4170 O   0  0  0  0  0  0  0  0  0  0  0  0
   -3.9486   -2.1676    0.7693 O   0  0  0  0  0  0  0  0  0  0  0  0
   -5.5130   -0.3783   -0.6708 O   0  0  0  0  0  0  0  0  0  0  0  0
    5.1369    0.9381    0.5798 O   0  0  0  0  0  0  0  0  0  0  0  0
    5.2197   -1.3647   -0.9732 O   0  0  0  0  0  0  0  0  0  0  0  0
   -1.9436    2.7630   -0.7296 N   0  0  0  0  0  0  0  0  0  0  0  0
   -1.6282    0.6441    0.3740 C   0  0  0  0  0  0  0  0  0  0  0  0
   -2.4156    1.5585   -0.3564 C   0  0  0  0  0  0  0  0  0  0  0  0
   -0.3209    1.0209    0.7102 C   0  0  0  0  0  0  0  0  0  0  0  0
   -2.1529   -0.6049    0.7470 C   0  0  0  0  0  0  0  0  0  0  0  0
   -3.4550   -0.9536    0.4000 C   0  0  0  0  0  0  0  0  0  0  0  0
   -3.7142    1.1838   -0.6899 C   0  0  0  0  0  0  0  0  0  0  0  0
   -4.2363   -0.0579   -0.3192 C   0  0  0  0  0  0  0  0  0  0  0  0
    0.1682    2.2615    0.3270 C   0  0  0  0  0  0  0  0  0  0  0  0
    1.6872   -0.1950    0.8183 C   0  0  0  0  0  0  0  0  0  0  0  0
   -0.6765    3.0882   -0.3854 C   0  0  0  0  0  0  0  0  0  0  0  0
    2.8218    0.5755    1.0040 C   0  0  0  0  0  0  0  0  0  0  0  0
    4.0169    0.1838    0.4005 C   0  0  0  0  0  0  0  0  0  0  0  0
    1.7100   -1.3448    0.0482 C   0  0  0  0  0  0  0  0  0  0  0  0
    4.0584   -0.9723   -0.3790 C   0  0  0  0  0  0  0  0  0  0  0  0
    2.9049   -1.7364   -0.5552 C   0  0  0  0  0  0  0  0  0  0  0  0
   -3.0783   -3.0252    1.5056 C   0  0  0  0  0  0  0  0  0  0  0  0
   -5.6949   -1.0325   -1.9249 C   0  0  0  0  0  0  0  0  0  0  0  0
    5.3743    1.9806   -0.3642 C   0  0  0  0  0  0  0  0  0  0  0  0
    5.1776   -2.5579   -1.7533 C   0  0  0  0  0  0  0  0  0  0  0  0
   -1.5055   -1.2690    1.3098 H   0  0  0  0  0  0  0  0  0  0  0  0
   -4.3414    1.8736   -1.2531 H   0  0  0  0  0  0  0  0  0  0  0  0
    1.1567    2.6195    0.5818 H   0  0  0  0  0  0  0  0  0  0  0  0
   -0.3519    4.0727   -0.7059 H   0  0  0  0  0  0  0  0  0  0  0  0
    2.8014    1.4607    1.6332 H   0  0  0  0  0  0  0  0  0  0  0  0
    0.8142   -1.9432   -0.0893 H   0  0  0  0  0  0  0  0  0  0  0  0
    2.8627   -2.6450   -1.1459 H   0  0  0  0  0  0  0  0  0  0  0  0
   -3.6340   -3.9457    1.7131 H   0  0  0  0  0  0  0  0  0  0  0  0
   -2.8094   -2.5920    2.4750 H   0  0  0  0  0  0  0  0  0  0  0  0
   -2.1999   -3.3114    0.9169 H   0  0  0  0  0  0  0  0  0  0  0  0
   -5.1596   -1.9871   -1.9432 H   0  0  0  0  0  0  0  0  0  0  0  0
   -5.3513   -0.3931   -2.7443 H   0  0  0  0  0  0  0  0  0  0  0  0
   -6.7625   -1.2279   -2.0579 H   0  0  0  0  0  0  0  0  0  0  0  0
    5.4840    1.5697   -1.3727 H   0  0  0  0  0  0  0  0  0  0  0  0
    6.3039    2.4865   -0.0896 H   0  0  0  0  0  0  0  0  0  0  0  0
    4.5586    2.7104   -0.3423 H   0  0  0  0  0  0  0  0  0  0  0  0
    6.1853   -2.7192   -2.1500 H   0  0  0  0  0  0  0  0  0  0  0  0
    4.5098   -2.4531   -2.6152 H   0  0  0  0  0  0  0  0  0  0  0  0
    4.9335   -3.4324   -1.1405 H   0  0  0  0  0  0  0  0  0  0  0  0
  1  9  1  0  0  0  0
  1 15  1  0  0  0  0
  2 11  1  0  0  0  0
  2 22  1  0  0  0  0
  3 13  1  0  0  0  0
  3 23  1  0  0  0  0
  4 18  1  0  0  0  0
  4 24  1  0  0  0  0
  5 20  1  0  0  0  0
  5 25  1  0  0  0  0
  6  8  2  0  0  0  0
  6 16  1  0  0  0  0
  7  8  1  0  0  0  0
  7  9  2  0  0  0  0
  7 10  1  0  0  0  0
  8 12  1  0  0  0  0
  9 14  1  0  0  0  0
 10 11  2  0  0  0  0
 10 26  1  0  0  0  0
 11 13  1  0  0  0  0
 12 13  2  0  0  0  0
 12 27  1  0  0  0  0
 14 16  2  0  0  0  0
 14 28  1  0  0  0  0
 15 17  2  0  0  0  0
 15 19  1  0  0  0  0
 16 29  1  0  0  0  0
 17 18  1  0  0  0  0
 17 30  1  0  0  0  0
 18 20  2  0  0  0  0
 19 21  2  0  0  0  0
 19 31  1  0  0  0  0
 20 21  1  0  0  0  0
 21 32  1  0  0  0  0
 22 33  1  0  0  0  0
 22 34  1  0  0  0  0
 22 35  1  0  0  0  0
 23 36  1  0  0  0  0
 23 37  1  0  0  0  0
 23 38  1  0  0  0  0
 24 39  1  0  0  0  0
 24 40  1  0  0  0  0
 24 41  1  0  0  0  0
 25 42  1  0  0  0  0
 25 43  1  0  0  0  0
 25 44  1  0  0  0  0
M  END
> <PUBCHEM_COMPOUND_CID>
9927943

> <PUBCHEM_CONFORMER_RMSD>
0.8

> <PUBCHEM_CONFORMER_DIVERSEORDER>
32
36
18
31
23
19
24
28
39
20
37
5
38
25
15
29
40
21
14
34
30
1
26
27
41
16
2
7
17
12
3
4
13
9
6
8
11
35
22
10
33

> <PUBCHEM_MMFF94_PARTIAL_CHARGES>
31
1 -0.17
10 -0.15
11 0.08
12 -0.15
13 0.08
14 -0.15
15 0.08
16 0.16
17 -0.15
18 0.08
19 -0.15
2 -0.36
20 0.08
21 -0.15
22 0.28
23 0.28
24 0.28
25 0.28
26 0.15
27 0.15
28 0.15
29 0.15
3 -0.36
30 0.15
31 0.15
32 0.15
4 -0.36
5 -0.36
6 -0.62
8 0.31
9 0.08

> <PUBCHEM_EFFECTIVE_ROTOR_COUNT>
6

> <PUBCHEM_PHARMACOPHORE_FEATURES>
9
1 1 acceptor
1 2 acceptor
1 3 acceptor
1 4 acceptor
1 5 acceptor
1 6 acceptor
6 15 17 18 19 20 21 rings
6 6 7 8 9 14 16 rings
6 7 8 10 11 12 13 rings

> <PUBCHEM_HEAVY_ATOM_COUNT>
25

> <PUBCHEM_ATOM_DEF_STEREO_COUNT>
0

> <PUBCHEM_ATOM_UDEF_STEREO_COUNT>
0

> <PUBCHEM_BOND_DEF_STEREO_COUNT>
0

> <PUBCHEM_BOND_UDEF_STEREO_COUNT>
0

> <PUBCHEM_ISOTOPIC_ATOM_COUNT>
0

> <PUBCHEM_COMPONENT_COUNT>
1

> <PUBCHEM_CACTVS_TAUTO_COUNT>
1

> <PUBCHEM_CONFORMER_ID>
00977D0700000020

> <PUBCHEM_MMFF94_ENERGY>
125.5955

> <PUBCHEM_FEATURE_SELFOVERLAP>
45.716

> <PUBCHEM_SHAPE_FINGERPRINT>
10498660 4 18187922824840260668
10906281 52 18410019823450489521
11578080 2 15121857689674441049
12553582 1 18333446539341314811
12596602 18 15338831027684680363
12670546 177 18186801387467839748
12788726 201 18264191566125300761
12892183 10 12535355566640782247
12916754 54 18129948862811132000
13402501 40 18412826889120430255
13540713 4 17608077987159730953
13544653 18 18060139851255386673
13911882 115 18343023320005186480
14790565 3 17760644772815610317
14840074 17 17988644133545055597
14951699 99 9078531725894633542
15475509 8 18339359665958206317
15880784 105 17346874563863503415
15961568 22 18040720311974132140
17357779 13 18411407428330339709
19319366 153 16951108617958457411
19958102 18 17968088664748296271
20645477 70 17989205907036432190
20871999 31 18261390006038917601
21033650 10 17532097102888389220
21307412 95 18411982456080626543
22393880 68 18192995924763046294
22849339 104 18040438823890947075
23557571 272 18410005520676793552
23559900 14 18338513024481597088
2838139 119 12179834001317886103
2871803 45 18410290285603506778
34797466 226 18335703866287468140
4280585 95 18187916317827540440
5104073 3 18271526399519455088
5281201 14 18341899537654643692
5283173 99 18114734945755253069
9709674 26 18410856521217238048

> <PUBCHEM_SHAPE_MULTIPOLES>
480.16
12.77
3.14
1.34
4.29
0.3
-0.23
-5.26
-5.21
0.01
-0.31
-0.41
-0.74
2.05

> <PUBCHEM_SHAPE_SELFOVERLAP>
1046.44

> <PUBCHEM_SHAPE_VOLUME>
262.8

> <PUBCHEM_COORDINATE_TYPE>
2
5
10

$$$$
