11626920
  -OEChem-10062122013D

 44 46  0     0  0  0  0  0  0999 V2000
   -3.0618   -4.2104   -0.6730 Cl  0  0  0  0  0  0  0  0  0  0  0  0
   -6.3590    3.8520   -1.6935 Cl  0  0  0  0  0  0  0  0  0  0  0  0
    8.1273    2.2703   -0.1424 F   0  0  0  0  0  0  0  0  0  0  0  0
    8.1258    0.1216   -0.4377 F   0  0  0  0  0  0  0  0  0  0  0  0
    7.2176    1.4214   -1.9258 F   0  0  0  0  0  0  0  0  0  0  0  0
    3.4014   -2.0791   -0.3810 O   0  0  0  0  0  0  0  0  0  0  0  0
   -3.9077   -1.9293    1.2823 O   0  0  0  0  0  0  0  0  0  0  0  0
    1.6107   -0.7191    0.2891 N   0  0  0  0  0  0  0  0  0  0  0  0
   -3.5685   -0.1763   -0.2398 N   0  0  0  0  0  0  0  0  0  0  0  0
   -6.9140    0.8456    0.8994 N   0  0  0  0  0  0  0  0  0  0  0  0
   -8.2854    2.6752    0.2986 N   0  0  0  0  0  0  0  0  0  0  0  0
    0.4844   -1.5476    0.0619 C   0  0  0  0  0  0  0  0  0  0  0  0
   -1.8891   -1.8806    0.1276 C   0  0  0  0  0  0  0  0  0  0  0  0
    3.9040    0.0440    0.4258 C   0  0  0  0  0  0  0  0  0  0  0  0
   -0.7803   -1.0644    0.3514 C   0  0  0  0  0  0  0  0  0  0  0  0
    6.0345    1.1407    0.1175 C   0  0  0  0  0  0  0  0  0  0  0  0
    2.9647   -1.0070    0.0677 C   0  0  0  0  0  0  0  0  0  0  0  0
    5.1340    0.1324   -0.2261 C   0  0  0  0  0  0  0  0  0  0  0  0
    0.6742   -2.8218   -0.4445 C   0  0  0  0  0  0  0  0  0  0  0  0
   -1.7163   -3.1673   -0.3824 C   0  0  0  0  0  0  0  0  0  0  0  0
   -3.2090   -1.3462    0.4404 C   0  0  0  0  0  0  0  0  0  0  0  0
   -0.4347   -3.6379   -0.6684 C   0  0  0  0  0  0  0  0  0  0  0  0
    3.5746    0.9638    1.4214 C   0  0  0  0  0  0  0  0  0  0  0  0
    5.7050    2.0605    1.1130 C   0  0  0  0  0  0  0  0  0  0  0  0
    4.4750    1.9720    1.7651 C   0  0  0  0  0  0  0  0  0  0  0  0
   -4.7634    0.5758   -0.1247 C   0  0  0  0  0  0  0  0  0  0  0  0
    7.3495    1.2362   -0.5800 C   0  0  0  0  0  0  0  0  0  0  0  0
   -4.9431    1.7129   -0.8829 C   0  0  0  0  0  0  0  0  0  0  0  0
   -5.7505    0.1754    0.7423 C   0  0  0  0  0  0  0  0  0  0  0  0
   -6.1272    2.4293   -0.7491 C   0  0  0  0  0  0  0  0  0  0  0  0
   -7.0725    1.9580    0.1477 C   0  0  0  0  0  0  0  0  0  0  0  0
   -0.9062   -0.0624    0.7551 H   0  0  0  0  0  0  0  0  0  0  0  0
    1.3663    0.2098    0.6213 H   0  0  0  0  0  0  0  0  0  0  0  0
    5.3995   -0.5759   -1.0075 H   0  0  0  0  0  0  0  0  0  0  0  0
    1.6305   -3.2580   -0.6906 H   0  0  0  0  0  0  0  0  0  0  0  0
    2.6470    0.9127    1.9837 H   0  0  0  0  0  0  0  0  0  0  0  0
   -0.2843   -4.6386   -1.0661 H   0  0  0  0  0  0  0  0  0  0  0  0
    6.3937    2.8516    1.3960 H   0  0  0  0  0  0  0  0  0  0  0  0
    4.2228    2.6831    2.5464 H   0  0  0  0  0  0  0  0  0  0  0  0
   -2.8964    0.1940   -0.9090 H   0  0  0  0  0  0  0  0  0  0  0  0
   -4.1724    2.0443   -1.5743 H   0  0  0  0  0  0  0  0  0  0  0  0
   -5.7070   -0.6965    1.3767 H   0  0  0  0  0  0  0  0  0  0  0  0
   -8.9622    2.3043    0.9537 H   0  0  0  0  0  0  0  0  0  0  0  0
   -8.6217    3.2188   -0.4867 H   0  0  0  0  0  0  0  0  0  0  0  0
  1 20  1  0  0  0  0
  2 30  1  0  0  0  0
  3 27  1  0  0  0  0
  4 27  1  0  0  0  0
  5 27  1  0  0  0  0
  6 17  2  0  0  0  0
  7 21  2  0  0  0  0
  8 12  1  0  0  0  0
  8 17  1  0  0  0  0
  8 33  1  0  0  0  0
  9 21  1  0  0  0  0
  9 26  1  0  0  0  0
  9 40  1  0  0  0  0
 10 29  2  0  0  0  0
 10 31  1  0  0  0  0
 11 31  1  0  0  0  0
 11 43  1  0  0  0  0
 11 44  1  0  0  0  0
 12 15  2  0  0  0  0
 12 19  1  0  0  0  0
 13 15  1  0  0  0  0
 13 20  2  0  0  0  0
 13 21  1  0  0  0  0
 14 17  1  0  0  0  0
 14 18  2  0  0  0  0
 14 23  1  0  0  0  0
 15 32  1  0  0  0  0
 16 18  1  0  0  0  0
 16 24  2  0  0  0  0
 16 27  1  0  0  0  0
 18 34  1  0  0  0  0
 19 22  2  0  0  0  0
 19 35  1  0  0  0  0
 20 22  1  0  0  0  0
 22 37  1  0  0  0  0
 23 25  2  0  0  0  0
 23 36  1  0  0  0  0
 24 25  1  0  0  0  0
 24 38  1  0  0  0  0
 25 39  1  0  0  0  0
 26 28  2  0  0  0  0
 26 29  1  0  0  0  0
 28 30  1  0  0  0  0
 28 41  1  0  0  0  0
 29 42  1  0  0  0  0
 30 31  2  0  0  0  0
M  END
> <PUBCHEM_COMPOUND_CID>
11626920

> <PUBCHEM_CONFORMER_RMSD>
1

> <PUBCHEM_CONFORMER_DIVERSEORDER>
1
14
25
10
21
55
22
50
41
24
43
35
37
13
20
46
15
48
53
42
47
9
52
44
16
26
32
5
34
36
7
28
33
59
6
17
8
56
54
49
40
51
18
30
29
27
38
3
58
31
12
2
45
11
39
19
23
4
57

> <PUBCHEM_MMFF94_PARTIAL_CHARGES>
44
1 -0.18
10 -0.62
11 -0.9
12 0.12
13 0.09
14 0.09
15 -0.15
16 -0.14
17 0.54
18 -0.15
19 -0.15
2 -0.18
20 0.18
21 0.54
22 -0.15
23 -0.15
24 -0.15
25 -0.15
26 0.12
27 1.16
28 -0.15
29 0.16
3 -0.34
30 0.18
31 0.41
32 0.15
33 0.37
34 0.15
35 0.15
36 0.15
37 0.15
38 0.15
39 0.15
4 -0.34
40 0.37
41 0.15
42 0.15
43 0.4
44 0.4
5 -0.34
6 -0.57
7 -0.57
8 -0.55
9 -0.55

> <PUBCHEM_EFFECTIVE_ROTOR_COUNT>
7

> <PUBCHEM_PHARMACOPHORE_FEATURES>
10
1 10 acceptor
1 11 cation
1 11 donor
1 6 acceptor
1 7 acceptor
1 8 donor
1 9 donor
6 10 26 28 29 30 31 rings
6 12 13 15 19 20 22 rings
6 14 16 18 23 24 25 rings

> <PUBCHEM_HEAVY_ATOM_COUNT>
31

> <PUBCHEM_ATOM_DEF_STEREO_COUNT>
0

> <PUBCHEM_ATOM_UDEF_STEREO_COUNT>
0

> <PUBCHEM_BOND_DEF_STEREO_COUNT>
0

> <PUBCHEM_BOND_UDEF_STEREO_COUNT>
0

> <PUBCHEM_ISOTOPIC_ATOM_COUNT>
0

> <PUBCHEM_COMPONENT_COUNT>
1

> <PUBCHEM_CACTVS_TAUTO_COUNT>
8

> <PUBCHEM_CONFORMER_ID>
00B169A800000001

> <PUBCHEM_MMFF94_ENERGY>
101.6141

> <PUBCHEM_FEATURE_SELFOVERLAP>
50.747

> <PUBCHEM_SHAPE_FINGERPRINT>
10 15 18186241723622926801
10190206 1 18340753945513225311
10369192 42 18410011018872891925
10816530 90 18340206285590544954
10864689 126 18342170051585217024
11273773 42 17632303324938686545
11297010 23 17989207019406725302
11409948 8 18188505623304023361
1200032 147 18335985285440088986
12218070 45 14563110185521092921
12522641 68 18202842145906111047
12895837 130 18261678172374169935
13008946 113 18334579023818656766
13248334 5 17980483356687499391
13540713 4 18341069444709651567
14068700 686 18119522133895188069
14211702 104 8574444140076281376
14294032 229 18334851740517631767
14617042 71 18269841922612112049
14647877 103 18040155110655454940
14904525 67 18117282665138259892
14919807 6 18340502093046397782
14931854 50 17632300051208158208
15183329 4 17489871526869854656
15198563 99 18054210293270988519
15419008 91 17702375338552954456
15444296 121 17749959984433767034
15778101 99 18411982498354844874
15803439 3 16988836177295092079
16120349 189 18334848395292158399
16126227 98 18410857659821434413
19053607 189 18194103128530277769
19304152 47 18188499089519900099
2026 5 9439405718423024097
20501277 279 18412550912798494521
20691028 202 18412824694439575897
21033648 29 18341602772272411464
21279426 13 17845660373584540370
22149856 69 12324512092228798854
2260408 40 15068894205800079722
23516275 100 17970901168802104125
23559900 14 17560243669290043450
23569914 2 17126721609808378088
23729398 52 17910124516398439167
24771293 8 18334577907285298765
2748736 6 18338784642408506777
2838139 119 18266166259023162367
3525247 18 17536013481882693717
3627633 1 17835236028038153071
3862424 121 13612803411417289661
4046055 4 17405982341599119590
439807 62 10663816386450277585
44249763 50 18200300138808073122
5219985 13 18410007715742743903
58902169 19 14476968908240368537
6086070 43 17417807387792716034
6327066 14 18411134719529729279
636775 8 9007062400815994696
9896288 288 18115591598484346235

> <PUBCHEM_SHAPE_MULTIPOLES>
588.22
24.53
4.73
1.22
11.43
2.53
0.04
-30.48
2.83
-6.35
1.49
0.37
-0.76
1.88

> <PUBCHEM_SHAPE_SELFOVERLAP>
1268.825

> <PUBCHEM_SHAPE_VOLUME>
325.5

> <PUBCHEM_COORDINATE_TYPE>
2
5
10

$$$$
