49830733
  -OEChem-10052115183D

 42 45  0     0  0  0  0  0  0999 V2000
    1.6620   -1.6774    0.0206 O   0  0  0  0  0  0  0  0  0  0  0  0
    8.4435    0.0702    1.1086 O   0  0  0  0  0  0  0  0  0  0  0  0
   -2.2630   -0.1591   -0.0053 N   0  0  0  0  0  0  0  0  0  0  0  0
   -1.9396    1.1605   -0.1110 N   0  0  0  0  0  0  0  0  0  0  0  0
   -1.1816   -2.3117    0.1074 N   0  0  0  0  0  0  0  0  0  0  0  0
    2.2820    0.5772   -0.1755 N   0  0  0  0  0  0  0  0  0  0  0  0
   -1.1129   -0.9542    0.0163 C   0  0  0  0  0  0  0  0  0  0  0  0
   -3.5445   -0.7325    0.0654 C   0  0  0  0  0  0  0  0  0  0  0  0
   -0.0411   -0.0954   -0.0694 C   0  0  0  0  0  0  0  0  0  0  0  0
   -4.7652    0.0936    0.0576 C   0  0  0  0  0  0  0  0  0  0  0  0
   -0.6087    1.1819   -0.1448 C   0  0  0  0  0  0  0  0  0  0  0  0
   -3.6572   -2.0683    0.1562 C   0  0  0  0  0  0  0  0  0  0  0  0
    1.3408   -0.4706   -0.0780 C   0  0  0  0  0  0  0  0  0  0  0  0
    3.6972    0.5145   -0.1841 C   0  0  0  0  0  0  0  0  0  0  0  0
   -2.3751   -2.8154    0.1708 C   0  0  0  0  0  0  0  0  0  0  0  0
   -5.7197   -0.0818   -0.9443 C   0  0  0  0  0  0  0  0  0  0  0  0
   -4.9659    1.0507    1.0522 C   0  0  0  0  0  0  0  0  0  0  0  0
    6.4841    0.3914   -0.2005 C   0  0  0  0  0  0  0  0  0  0  0  0
    4.3413   -0.7190   -0.0863 C   0  0  0  0  0  0  0  0  0  0  0  0
    4.4465    1.6863   -0.2899 C   0  0  0  0  0  0  0  0  0  0  0  0
    5.7348   -0.7805   -0.0946 C   0  0  0  0  0  0  0  0  0  0  0  0
    5.8399    1.6247   -0.2981 C   0  0  0  0  0  0  0  0  0  0  0  0
   -6.8750    0.6999   -0.9516 C   0  0  0  0  0  0  0  0  0  0  0  0
   -6.1210    1.8325    1.0449 C   0  0  0  0  0  0  0  0  0  0  0  0
   -7.0756    1.6571    0.0430 C   0  0  0  0  0  0  0  0  0  0  0  0
    7.9739    0.3255   -0.2094 C   0  0  0  0  0  0  0  0  0  0  0  0
   -0.1247    2.1446   -0.2246 H   0  0  0  0  0  0  0  0  0  0  0  0
   -4.5878   -2.6158    0.2260 H   0  0  0  0  0  0  0  0  0  0  0  0
   -2.4800   -3.9103    0.2452 H   0  0  0  0  0  0  0  0  0  0  0  0
    1.9177    1.5236   -0.2491 H   0  0  0  0  0  0  0  0  0  0  0  0
   -5.5795   -0.8180   -1.7322 H   0  0  0  0  0  0  0  0  0  0  0  0
   -4.2376    1.1971    1.8462 H   0  0  0  0  0  0  0  0  0  0  0  0
    3.8305   -1.6674   -0.0014 H   0  0  0  0  0  0  0  0  0  0  0  0
    3.9573    2.6540   -0.3662 H   0  0  0  0  0  0  0  0  0  0  0  0
    6.2275   -1.7464   -0.0176 H   0  0  0  0  0  0  0  0  0  0  0  0
    6.4109    2.5458   -0.3795 H   0  0  0  0  0  0  0  0  0  0  0  0
   -7.6177    0.5644   -1.7324 H   0  0  0  0  0  0  0  0  0  0  0  0
   -6.2782    2.5766    1.8203 H   0  0  0  0  0  0  0  0  0  0  0  0
   -7.9750    2.2658    0.0374 H   0  0  0  0  0  0  0  0  0  0  0  0
    8.3184   -0.4760   -0.8723 H   0  0  0  0  0  0  0  0  0  0  0  0
    8.4168    1.2633   -0.5616 H   0  0  0  0  0  0  0  0  0  0  0  0
    9.4137    0.0239    1.0613 H   0  0  0  0  0  0  0  0  0  0  0  0
  1 13  2  0  0  0  0
  2 26  1  0  0  0  0
  2 42  1  0  0  0  0
  3  4  1  0  0  0  0
  3  7  1  0  0  0  0
  3  8  1  0  0  0  0
  4 11  2  0  0  0  0
  5  7  1  0  0  0  0
  5 15  2  0  0  0  0
  6 13  1  0  0  0  0
  6 14  1  0  0  0  0
  6 30  1  0  0  0  0
  7  9  2  0  0  0  0
  8 10  1  0  0  0  0
  8 12  2  0  0  0  0
  9 11  1  0  0  0  0
  9 13  1  0  0  0  0
 10 16  2  0  0  0  0
 10 17  1  0  0  0  0
 11 27  1  0  0  0  0
 12 15  1  0  0  0  0
 12 28  1  0  0  0  0
 14 19  2  0  0  0  0
 14 20  1  0  0  0  0
 15 29  1  0  0  0  0
 16 23  1  0  0  0  0
 16 31  1  0  0  0  0
 17 24  2  0  0  0  0
 17 32  1  0  0  0  0
 18 21  2  0  0  0  0
 18 22  1  0  0  0  0
 18 26  1  0  0  0  0
 19 21  1  0  0  0  0
 19 33  1  0  0  0  0
 20 22  2  0  0  0  0
 20 34  1  0  0  0  0
 21 35  1  0  0  0  0
 22 36  1  0  0  0  0
 23 25  2  0  0  0  0
 23 37  1  0  0  0  0
 24 25  1  0  0  0  0
 24 38  1  0  0  0  0
 25 39  1  0  0  0  0
 26 40  1  0  0  0  0
 26 41  1  0  0  0  0
M  END
> <PUBCHEM_COMPOUND_CID>
49830733

> <PUBCHEM_CONFORMER_RMSD>
0.8

> <PUBCHEM_CONFORMER_DIVERSEORDER>
1
2
5
7
6
3
4
8

> <PUBCHEM_MMFF94_PARTIAL_CHARGES>
40
1 -0.57
10 0.03
11 0.14
12 -0.14
13 0.72
14 0.12
15 0.38
16 -0.15
17 -0.15
18 -0.14
19 -0.15
2 -0.68
20 -0.15
21 -0.15
22 -0.15
23 -0.15
24 -0.15
25 -0.15
26 0.42
27 0.15
28 0.15
29 0.06
3 0.6
30 0.37
31 0.15
32 0.15
33 0.15
34 0.15
35 0.15
36 0.15
37 0.15
38 0.15
39 0.15
4 -0.71
42 0.4
5 -0.58
6 -0.55
7 -0.03
8 -0.06
9 -0.09

> <PUBCHEM_EFFECTIVE_ROTOR_COUNT>
5

> <PUBCHEM_PHARMACOPHORE_FEATURES>
10
1 1 acceptor
1 2 acceptor
1 2 donor
1 4 acceptor
1 5 acceptor
1 6 donor
5 3 4 7 9 11 rings
6 10 16 17 23 24 25 rings
6 14 18 19 20 21 22 rings
6 3 5 7 8 12 15 rings

> <PUBCHEM_HEAVY_ATOM_COUNT>
26

> <PUBCHEM_ATOM_DEF_STEREO_COUNT>
0

> <PUBCHEM_ATOM_UDEF_STEREO_COUNT>
0

> <PUBCHEM_BOND_DEF_STEREO_COUNT>
0

> <PUBCHEM_BOND_UDEF_STEREO_COUNT>
0

> <PUBCHEM_ISOTOPIC_ATOM_COUNT>
0

> <PUBCHEM_COMPONENT_COUNT>
1

> <PUBCHEM_CACTVS_TAUTO_COUNT>
2

> <PUBCHEM_CONFORMER_ID>
02F85B4D00000001

> <PUBCHEM_MMFF94_ENERGY>
75.3064

> <PUBCHEM_FEATURE_SELFOVERLAP>
50.877

> <PUBCHEM_SHAPE_FINGERPRINT>
10 15 17821451261411846761
10050765 1 18122343750823714260
10411042 1 17907016532841098187
10835480 77 18269551796890447144
10906281 52 18271823301902615055
11089746 13 18060699498463561113
11135926 11 18113889451478633738
11315181 36 17489590086558694513
11719270 70 18131350796361960006
12236239 1 17895194454515459950
12616971 3 16733267953740129606
12788726 201 17774163392578954345
12838862 33 18336530660308245564
13533116 47 18130787794457331050
14251764 46 18334575742352229597
14790565 3 18339085870140323809
15021287 119 17095246955728345821
15131766 46 15649337569644683230
15183329 4 18412263926107663640
15461852 350 17346314937845322692
15927050 60 18334856130255095187
17093844 174 18410574023980464379
20281389 69 18186519895564350573
21033648 29 17774705551144139760
21130935 74 18337388344789202146
21150785 3 14405182872025921320
21236236 1 18411419557603209983
23559900 14 18341889748965188392
249057 3 18408042931207599436
2838139 119 18273214205650287845
3004659 81 18334857243077755464
335352 9 18409448106756557133
34934 24 18335136497160982059
350125 39 18408603665253217028
397830 11 15937555808092766541
4073 2 18114186401728531298
4339292 15 15840972478448455309
4340502 62 16370730301039559219
44389302 135 18263067870560633218
4938544 92 12757415134954275839
5104073 3 18261672679121646058
54039377 194 10159687007213581817
559249 180 18335420209414772727
58260988 114 16154286047524392899
59755656 215 18411705357564300934
59755656 520 18409443692100116335
6009941 240 17603871113278498073
6328613 192 18410858788812732009
636775 72 18201999932414709400
7226269 152 18272655628089625313

> <PUBCHEM_SHAPE_MULTIPOLES>
503.41
22.64
2.13
0.81
21.31
0.97
-0.05
-9.75
-0.59
-2.08
-0.2
-0.6
-0.16
-0.6

> <PUBCHEM_SHAPE_SELFOVERLAP>
1114.364

> <PUBCHEM_SHAPE_VOLUME>
268.4

> <PUBCHEM_COORDINATE_TYPE>
2
5
10

$$$$
