44343747
  -OEChem-10052115143D

 67 69  0     0  0  0  0  0  0999 V2000
    3.7380   -0.7100    1.0012 O   0  0  0  0  0  0  0  0  0  0  0  0
  -10.2909   -0.1141    0.4600 N   0  0  0  0  0  0  0  0  0  0  0  0
  -10.9454   -1.1727   -0.1209 N   0  0  0  0  0  0  0  0  0  0  0  0
    4.6977    0.4753   -0.7832 N   0  0  0  0  0  0  0  0  0  0  0  0
  -10.2039    2.2334    0.9554 N   0  0  0  0  0  0  0  0  0  0  0  0
    6.9567    0.9003   -1.4108 N   0  0  0  0  0  0  0  0  0  0  0  0
    8.2918    0.7616   -1.1919 N   0  0  0  0  0  0  0  0  0  0  0  0
   -3.9582   -0.3636    0.6417 C   0  0  0  0  0  0  0  0  0  0  0  0
   -2.7779    0.0813   -0.2249 C   0  0  0  0  0  0  0  0  0  0  0  0
   -5.2917    0.0510    0.0167 C   0  0  0  0  0  0  0  0  0  0  0  0
   -1.4417   -0.3003    0.4169 C   0  0  0  0  0  0  0  0  0  0  0  0
   -6.5100   -0.3770    0.8407 C   0  0  0  0  0  0  0  0  0  0  0  0
   -0.2626    0.1741   -0.4355 C   0  0  0  0  0  0  0  0  0  0  0  0
   -7.8755   -0.0424    0.2338 C   0  0  0  0  0  0  0  0  0  0  0  0
    1.1053   -0.2086    0.1428 C   0  0  0  0  0  0  0  0  0  0  0  0
   -9.0506   -0.4662    1.1096 C   0  0  0  0  0  0  0  0  0  0  0  0
    2.3071    0.3188   -0.6413 C   0  0  0  0  0  0  0  0  0  0  0  0
    3.6521   -0.0347   -0.0193 C   0  0  0  0  0  0  0  0  0  0  0  0
  -10.7867    1.1950    0.4227 C   0  0  0  0  0  0  0  0  0  0  0  0
  -12.0668   -0.9114   -0.7174 C   0  0  0  0  0  0  0  0  0  0  0  0
  -12.0745    1.4662   -0.2687 C   0  0  0  0  0  0  0  0  0  0  0  0
  -12.6980    0.4284   -0.8265 C   0  0  0  0  0  0  0  0  0  0  0  0
    6.0862    0.3282   -0.5521 C   0  0  0  0  0  0  0  0  0  0  0  0
  -12.8109   -2.0516   -1.3650 C   0  0  0  0  0  0  0  0  0  0  0  0
    6.4881   -0.3992    0.5501 C   0  0  0  0  0  0  0  0  0  0  0  0
    7.8465   -0.5405    0.7728 C   0  0  0  0  0  0  0  0  0  0  0  0
    8.7132    0.0552   -0.1215 C   0  0  0  0  0  0  0  0  0  0  0  0
   10.1434   -0.0385    0.0347 C   0  0  0  0  0  0  0  0  0  0  0  0
   10.7645   -1.2875    0.0340 C   0  0  0  0  0  0  0  0  0  0  0  0
   10.9060    1.1195    0.1863 C   0  0  0  0  0  0  0  0  0  0  0  0
   12.1482   -1.3784    0.1851 C   0  0  0  0  0  0  0  0  0  0  0  0
   12.2896    1.0287    0.3375 C   0  0  0  0  0  0  0  0  0  0  0  0
   12.9108   -0.2203    0.3368 C   0  0  0  0  0  0  0  0  0  0  0  0
   -3.9334   -1.4527    0.7671 H   0  0  0  0  0  0  0  0  0  0  0  0
   -3.8712    0.0796    1.6411 H   0  0  0  0  0  0  0  0  0  0  0  0
   -2.8178    1.1681   -0.3681 H   0  0  0  0  0  0  0  0  0  0  0  0
   -2.8552   -0.3791   -1.2173 H   0  0  0  0  0  0  0  0  0  0  0  0
   -5.3132    1.1404   -0.1101 H   0  0  0  0  0  0  0  0  0  0  0  0
   -5.3713   -0.3858   -0.9865 H   0  0  0  0  0  0  0  0  0  0  0  0
   -1.3706    0.1437    1.4171 H   0  0  0  0  0  0  0  0  0  0  0  0
   -1.3903   -1.3886    0.5410 H   0  0  0  0  0  0  0  0  0  0  0  0
   -6.4415    0.0891    1.8318 H   0  0  0  0  0  0  0  0  0  0  0  0
   -6.4591   -1.4609    1.0053 H   0  0  0  0  0  0  0  0  0  0  0  0
   -0.3116    1.2650   -0.5409 H   0  0  0  0  0  0  0  0  0  0  0  0
   -0.3494   -0.2455   -1.4454 H   0  0  0  0  0  0  0  0  0  0  0  0
   -7.9572   -0.5295   -0.7466 H   0  0  0  0  0  0  0  0  0  0  0  0
   -7.9152    1.0365    0.0416 H   0  0  0  0  0  0  0  0  0  0  0  0
    1.1668    0.1613    1.1746 H   0  0  0  0  0  0  0  0  0  0  0  0
    1.1708   -1.3022    0.2082 H   0  0  0  0  0  0  0  0  0  0  0  0
   -8.9874    0.0215    2.0898 H   0  0  0  0  0  0  0  0  0  0  0  0
   -9.0005   -1.5459    1.3001 H   0  0  0  0  0  0  0  0  0  0  0  0
    2.2841   -0.0852   -1.6605 H   0  0  0  0  0  0  0  0  0  0  0  0
    2.2447    1.4113   -0.7138 H   0  0  0  0  0  0  0  0  0  0  0  0
    4.4673    1.0190   -1.6114 H   0  0  0  0  0  0  0  0  0  0  0  0
  -12.4796    2.4692   -0.3116 H   0  0  0  0  0  0  0  0  0  0  0  0
  -13.6394    0.5420   -1.3485 H   0  0  0  0  0  0  0  0  0  0  0  0
  -12.1759   -2.5052   -2.1318 H   0  0  0  0  0  0  0  0  0  0  0  0
  -13.7425   -1.7199   -1.8304 H   0  0  0  0  0  0  0  0  0  0  0  0
  -13.0448   -2.8047   -0.6068 H   0  0  0  0  0  0  0  0  0  0  0  0
  -10.7443    3.0914    0.8063 H   0  0  0  0  0  0  0  0  0  0  0  0
    5.8434   -0.8768    1.2699 H   0  0  0  0  0  0  0  0  0  0  0  0
    8.2011   -1.1010    1.6320 H   0  0  0  0  0  0  0  0  0  0  0  0
   10.1893   -2.2023   -0.0882 H   0  0  0  0  0  0  0  0  0  0  0  0
   10.4396    2.1019    0.1929 H   0  0  0  0  0  0  0  0  0  0  0  0
   12.6323   -2.3507    0.1834 H   0  0  0  0  0  0  0  0  0  0  0  0
   12.8835    1.9301    0.4564 H   0  0  0  0  0  0  0  0  0  0  0  0
   13.9881   -0.2910    0.4543 H   0  0  0  0  0  0  0  0  0  0  0  0
  1 18  2  0  0  0  0
  2  3  1  0  0  0  0
  2 16  1  0  0  0  0
  2 19  1  0  0  0  0
  3 20  2  0  0  0  0
  4 18  1  0  0  0  0
  4 23  1  0  0  0  0
  4 54  1  0  0  0  0
  5 19  2  0  0  0  0
  5 60  1  0  0  0  0
  6  7  1  0  0  0  0
  6 23  2  0  0  0  0
  7 27  2  0  0  0  0
  8  9  1  0  0  0  0
  8 10  1  0  0  0  0
  8 34  1  0  0  0  0
  8 35  1  0  0  0  0
  9 11  1  0  0  0  0
  9 36  1  0  0  0  0
  9 37  1  0  0  0  0
 10 12  1  0  0  0  0
 10 38  1  0  0  0  0
 10 39  1  0  0  0  0
 11 13  1  0  0  0  0
 11 40  1  0  0  0  0
 11 41  1  0  0  0  0
 12 14  1  0  0  0  0
 12 42  1  0  0  0  0
 12 43  1  0  0  0  0
 13 15  1  0  0  0  0
 13 44  1  0  0  0  0
 13 45  1  0  0  0  0
 14 16  1  0  0  0  0
 14 46  1  0  0  0  0
 14 47  1  0  0  0  0
 15 17  1  0  0  0  0
 15 48  1  0  0  0  0
 15 49  1  0  0  0  0
 16 50  1  0  0  0  0
 16 51  1  0  0  0  0
 17 18  1  0  0  0  0
 17 52  1  0  0  0  0
 17 53  1  0  0  0  0
 19 21  1  0  0  0  0
 20 22  1  0  0  0  0
 20 24  1  0  0  0  0
 21 22  2  0  0  0  0
 21 55  1  0  0  0  0
 22 56  1  0  0  0  0
 23 25  1  0  0  0  0
 24 57  1  0  0  0  0
 24 58  1  0  0  0  0
 24 59  1  0  0  0  0
 25 26  2  0  0  0  0
 25 61  1  0  0  0  0
 26 27  1  0  0  0  0
 26 62  1  0  0  0  0
 27 28  1  0  0  0  0
 28 29  2  0  0  0  0
 28 30  1  0  0  0  0
 29 31  1  0  0  0  0
 29 63  1  0  0  0  0
 30 32  2  0  0  0  0
 30 64  1  0  0  0  0
 31 33  2  0  0  0  0
 31 65  1  0  0  0  0
 32 33  1  0  0  0  0
 32 66  1  0  0  0  0
 33 67  1  0  0  0  0
M  END
> <PUBCHEM_COMPOUND_CID>
44343747

> <PUBCHEM_CONFORMER_RMSD>
1.6

> <PUBCHEM_CONFORMER_DIVERSEORDER>
1
68
23
50
7
3
43
109
114
62
88
19
101
94
60
30
95
71
16
2
52
25
33
104
27
5
97
45
32
6
98
24
72
99
58
80
54
12
108
44
56
113
66
65
4
41
42
22
93
21
76
106
81
84
29
53
117
14
87
11
64
61
17
116
74
63
9
92
46
48
15
115
75
70
47
57
112
18
49
83
10
59
96
28
37
13
55
31
107
69
20
102
91
79
90
8
38
85
103
105
67
35
89
40
34
77
78
82
86
51
100
110
36
73
39
26
111

> <PUBCHEM_MMFF94_PARTIAL_CHARGES>
35
1 -0.57
16 0.37
17 0.06
18 0.57
19 0.49
2 -0.38
20 0.37
21 -0.14
22 -0.14
23 0.43
24 0.06
25 -0.15
26 -0.15
27 0.31
29 -0.15
3 -0.49
30 -0.15
31 -0.15
32 -0.15
33 -0.15
4 -0.55
5 -0.85
54 0.37
55 0.15
56 0.15
6 -0.31
60 0.4
61 0.15
62 0.15
63 0.15
64 0.15
65 0.15
66 0.15
67 0.15
7 -0.31

> <PUBCHEM_EFFECTIVE_ROTOR_COUNT>
14

> <PUBCHEM_PHARMACOPHORE_FEATURES>
9
1 1 acceptor
1 3 acceptor
1 4 donor
1 5 donor
1 7 acceptor
3 2 5 19 cation
6 2 3 19 20 21 22 rings
6 28 29 30 31 32 33 rings
6 6 7 23 25 26 27 rings

> <PUBCHEM_HEAVY_ATOM_COUNT>
33

> <PUBCHEM_ATOM_DEF_STEREO_COUNT>
0

> <PUBCHEM_ATOM_UDEF_STEREO_COUNT>
0

> <PUBCHEM_BOND_DEF_STEREO_COUNT>
0

> <PUBCHEM_BOND_UDEF_STEREO_COUNT>
0

> <PUBCHEM_ISOTOPIC_ATOM_COUNT>
0

> <PUBCHEM_COMPONENT_COUNT>
1

> <PUBCHEM_CACTVS_TAUTO_COUNT>
3

> <PUBCHEM_CONFORMER_ID>
02A4A1C300000001

> <PUBCHEM_MMFF94_ENERGY>
74.9421

> <PUBCHEM_FEATURE_SELFOVERLAP>
45.671

> <PUBCHEM_SHAPE_FINGERPRINT>
12013929 2 17312822679807652120
12522641 33 18040435482638434899
12559415 90 18411417290140117397
12664476 115 18260266352643129333
14251764 46 18342459244132166555
14251920 1 18410573985151464138
14344974 52 17561361807710674145
15061470 23 18410012126679340465
15219723 13 18335417921363561154
16728433 110 18187648038093253964
20580484 106 18343300362818273239
232437 2 17095525101635864154
23581129 1 18409448089539582314
3092352 35 18341894095177023871
4874694 18 16845576417934733847
59521270 166 12468632838730931123
9663363 56 17418374692795106240

> <PUBCHEM_SHAPE_MULTIPOLES>
643.37
76.66
1.32
1
56.97
0.04
0.09
-2.41
3.99
2.67
0.08
0.84
-0.03
-2.15

> <PUBCHEM_SHAPE_SELFOVERLAP>
1324.591

> <PUBCHEM_SHAPE_VOLUME>
365.8

> <PUBCHEM_COORDINATE_TYPE>
2
5
10

$$$$
