13084523
  -OEChem-10062121543D

 29 30  0     0  0  0  0  0  0999 V2000
   -4.3758    0.0972    0.0381 S   0  0  0  0  0  0  0  0  0  0  0  0
    1.9703    2.2823   -0.0516 O   0  0  0  0  0  0  0  0  0  0  0  0
    4.5056    1.8900   -0.0701 O   0  0  0  0  0  0  0  0  0  0  0  0
    4.1931   -0.3732   -0.0350 O   0  0  0  0  0  0  0  0  0  0  0  0
    0.1642   -2.5286    0.0367 N   0  0  0  0  0  0  0  0  0  0  0  0
    1.4919   -0.0300   -0.0117 N   0  0  0  0  0  0  0  0  0  0  0  0
   -4.3050    1.7516    0.0135 N   0  0  0  0  0  0  0  0  0  0  0  0
   -0.5652   -1.3156    0.0264 C   0  0  0  0  0  0  0  0  0  0  0  0
    0.0948   -0.0916    0.0029 C   0  0  0  0  0  0  0  0  0  0  0  0
   -2.0397    1.0737    0.0036 C   0  0  0  0  0  0  0  0  0  0  0  0
   -1.9607   -1.3767    0.0386 C   0  0  0  0  0  0  0  0  0  0  0  0
   -2.6760   -0.1692    0.0270 C   0  0  0  0  0  0  0  0  0  0  0  0
   -0.6278    1.1058   -0.0090 C   0  0  0  0  0  0  0  0  0  0  0  0
   -0.0045   -3.4896   -1.0315 C   0  0  0  0  0  0  0  0  0  0  0  0
    1.0945   -2.8106    1.1085 C   0  0  0  0  0  0  0  0  0  0  0  0
   -3.0261    2.1123   -0.0027 C   0  0  0  0  0  0  0  0  0  0  0  0
    2.2941    1.1059   -0.0373 C   0  0  0  0  0  0  0  0  0  0  0  0
    3.7723    0.7664   -0.0465 C   0  0  0  0  0  0  0  0  0  0  0  0
   -2.4864   -2.3268    0.0638 H   0  0  0  0  0  0  0  0  0  0  0  0
   -0.1832    2.0891   -0.0272 H   0  0  0  0  0  0  0  0  0  0  0  0
    0.0331   -2.9980   -2.0098 H   0  0  0  0  0  0  0  0  0  0  0  0
   -0.9618   -4.0127   -0.9379 H   0  0  0  0  0  0  0  0  0  0  0  0
    0.7892   -4.2446   -1.0134 H   0  0  0  0  0  0  0  0  0  0  0  0
    2.1202   -2.8758    0.7308 H   0  0  0  0  0  0  0  0  0  0  0  0
    0.8498   -3.7770    1.5637 H   0  0  0  0  0  0  0  0  0  0  0  0
    1.0600   -2.0647    1.9104 H   0  0  0  0  0  0  0  0  0  0  0  0
    1.9787   -0.9190   -0.0473 H   0  0  0  0  0  0  0  0  0  0  0  0
   -2.8167    3.1738   -0.0198 H   0  0  0  0  0  0  0  0  0  0  0  0
    5.4688    1.7043   -0.0774 H   0  0  0  0  0  0  0  0  0  0  0  0
  1  7  1  0  0  0  0
  1 12  1  0  0  0  0
  2 17  2  0  0  0  0
  3 18  1  0  0  0  0
  3 29  1  0  0  0  0
  4 18  2  0  0  0  0
  5  8  1  0  0  0  0
  5 14  1  0  0  0  0
  5 15  1  0  0  0  0
  6  9  1  0  0  0  0
  6 17  1  0  0  0  0
  6 27  1  0  0  0  0
  7 16  2  0  0  0  0
  8  9  2  0  0  0  0
  8 11  1  0  0  0  0
  9 13  1  0  0  0  0
 10 12  1  0  0  0  0
 10 13  2  0  0  0  0
 10 16  1  0  0  0  0
 11 12  2  0  0  0  0
 11 19  1  0  0  0  0
 13 20  1  0  0  0  0
 14 21  1  0  0  0  0
 14 22  1  0  0  0  0
 14 23  1  0  0  0  0
 15 24  1  0  0  0  0
 15 25  1  0  0  0  0
 15 26  1  0  0  0  0
 16 28  1  0  0  0  0
 17 18  1  0  0  0  0
M  END
> <PUBCHEM_COMPOUND_CID>
13084523

> <PUBCHEM_CONFORMER_RMSD>
0.6

> <PUBCHEM_CONFORMER_DIVERSEORDER>
1
4
2
3
5

> <PUBCHEM_MMFF94_PARTIAL_CHARGES>
22
1 0.18
11 -0.15
12 0.04
13 -0.15
14 0.37
15 0.37
16 0.14
17 0.63
18 0.72
19 0.15
2 -0.57
20 0.15
27 0.37
28 0.15
29 0.5
3 -0.65
4 -0.57
5 -0.84
6 -0.55
7 -0.51
8 0.1
9 0.12

> <PUBCHEM_EFFECTIVE_ROTOR_COUNT>
4

> <PUBCHEM_PHARMACOPHORE_FEATURES>
9
1 2 acceptor
1 3 acceptor
1 4 acceptor
1 5 cation
1 6 donor
1 7 acceptor
3 3 4 18 anion
5 1 7 10 12 16 rings
6 8 9 10 11 12 13 rings

> <PUBCHEM_HEAVY_ATOM_COUNT>
18

> <PUBCHEM_ATOM_DEF_STEREO_COUNT>
0

> <PUBCHEM_ATOM_UDEF_STEREO_COUNT>
0

> <PUBCHEM_BOND_DEF_STEREO_COUNT>
0

> <PUBCHEM_BOND_UDEF_STEREO_COUNT>
0

> <PUBCHEM_ISOTOPIC_ATOM_COUNT>
0

> <PUBCHEM_COMPONENT_COUNT>
1

> <PUBCHEM_CACTVS_TAUTO_COUNT>
2

> <PUBCHEM_CONFORMER_ID>
00C7A76B00000001

> <PUBCHEM_MMFF94_ENERGY>
62.9473

> <PUBCHEM_FEATURE_SELFOVERLAP>
45.797

> <PUBCHEM_SHAPE_FINGERPRINT>
10411042 1 17258215701540836510
10922049 32 18410298016386266923
10967382 1 18338234856012564665
12035759 4 18127383809494747951
12173636 292 18339076102704178524
12346645 44 18410292497585296225
12500047 106 18270115850655367952
12592029 89 18334859381106397130
12644460 14 18118410548844226267
12788726 201 17831009492360452970
13380535 76 18408042888321093467
13544592 145 18271537433533089556
138480 1 17762619490707244366
14022349 108 18264491676395195059
14178342 30 18050267457220574144
15042514 8 18121504823641963139
15196674 1 18410293614118732456
15309172 13 18410019852940208921
15475509 8 16261535348922212293
15536298 74 18269554940294454007
16945 1 18410009910518036955
18186145 218 18201734941516425680
19591789 44 18267585882905270531
20510252 161 18270405034644675137
20645476 183 17898027942829227516
20645477 56 18339360889464826880
20645477 70 18194395598944083871
212916 134 18271224098156882392
21478907 32 17764304337948437807
21501502 16 18267015064777387283
21524375 3 18408604777159032279
23366157 5 17969790661408319163
23402539 116 18271237326302738893
23419403 2 17542839314137909931
23558518 356 17974563908109777922
23559900 14 18053378799548101135
25147074 1 18200019631100992965
257057 1 17117473819022027559
2748010 2 18338250335317578527
298252 57 18408041835885164922
305870 269 18335983081979226179
3071541 12 18052544270359372911
3091708 16 9193251448636236747
352729 6 18338243789834788127
43471831 8 18335136479606508219
474229 33 18338237171596198579
5104073 3 18408885152735184720
532947 4 18200040512858206846
6138700 20 18194970639257557766
633830 44 18342739585385457908
69090 78 18340485668094541676
7364860 26 18196655090390373695
81228 2 17688859152700139251
81539 233 18261956245541720391
9709674 26 18198911499215521318

> <PUBCHEM_SHAPE_MULTIPOLES>
341.73
7.43
3.35
0.73
1.56
2.62
-0.02
-5.52
0
0.91
0.25
0.05
0.44
-0.25

> <PUBCHEM_SHAPE_SELFOVERLAP>
719.272

> <PUBCHEM_SHAPE_VOLUME>
194.9

> <PUBCHEM_COORDINATE_TYPE>
2
5
10

$$$$
