44219749
  -OEChem-10062122033D

 65 69  0     0  0  0  0  0  0999 V2000
    1.6959   -6.6926   -0.0308 O   0  0  0  0  0  0  0  0  0  0  0  0
   -7.4103    2.6719    1.1334 O   0  0  0  0  0  0  0  0  0  0  0  0
   -7.5384    2.6321   -1.1484 O   0  0  0  0  0  0  0  0  0  0  0  0
    7.4055    4.2844   -0.1082 O   0  0  0  0  0  0  0  0  0  0  0  0
    7.1542    2.2011    0.8008 O   0  0  0  0  0  0  0  0  0  0  0  0
   -2.3543   -0.6894   -0.0316 N   0  0  0  0  0  0  0  0  0  0  0  0
   -5.5037    2.2546   -0.0902 N   0  0  0  0  0  0  0  0  0  0  0  0
   -3.0374   -1.8477    0.0290 N   0  0  0  0  0  0  0  0  0  0  0  0
    0.8532   -4.0122    0.0385 N   0  0  0  0  0  0  0  0  0  0  0  0
   -0.0705    0.1108   -0.1104 N   0  0  0  0  0  0  0  0  0  0  0  0
    1.5315   -1.7283   -0.0688 N   0  0  0  0  0  0  0  0  0  0  0  0
    5.4091    3.2676   -0.3470 N   0  0  0  0  0  0  0  0  0  0  0  0
   -3.1112    0.6248   -0.0709 C   0  0  0  0  0  0  0  0  0  0  0  0
   -4.0011    0.7425   -1.3232 C   0  0  0  0  0  0  0  0  0  0  0  0
   -3.9479    0.8478    1.2036 C   0  0  0  0  0  0  0  0  0  0  0  0
   -4.7579    2.0692   -1.3346 C   0  0  0  0  0  0  0  0  0  0  0  0
   -4.7071    2.1724    1.1383 C   0  0  0  0  0  0  0  0  0  0  0  0
   -1.0013   -0.8550   -0.0526 C   0  0  0  0  0  0  0  0  0  0  0  0
   -0.7828   -2.2205   -0.0020 C   0  0  0  0  0  0  0  0  0  0  0  0
    0.5402   -2.6499   -0.0115 C   0  0  0  0  0  0  0  0  0  0  0  0
   -6.8739    2.5286   -0.1188 C   0  0  0  0  0  0  0  0  0  0  0  0
   -2.0749   -2.7763    0.0468 C   0  0  0  0  0  0  0  0  0  0  0  0
    2.1149   -4.4110    0.6775 C   0  0  0  0  0  0  0  0  0  0  0  0
    0.3765   -4.9116   -1.0177 C   0  0  0  0  0  0  0  0  0  0  0  0
    1.1697   -0.4240   -0.1141 C   0  0  0  0  0  0  0  0  0  0  0  0
    2.0431   -5.8773    1.0883 C   0  0  0  0  0  0  0  0  0  0  0  0
    0.3981   -6.3516   -0.5169 C   0  0  0  0  0  0  0  0  0  0  0  0
    2.2563    0.5212   -0.1748 C   0  0  0  0  0  0  0  0  0  0  0  0
   -8.8132    2.9545    1.1905 C   0  0  0  0  0  0  0  0  0  0  0  0
    2.0825    1.7427   -0.8256 C   0  0  0  0  0  0  0  0  0  0  0  0
    3.4812    0.2148    0.4182 C   0  0  0  0  0  0  0  0  0  0  0  0
    3.1335    2.6581   -0.8830 C   0  0  0  0  0  0  0  0  0  0  0  0
    4.5322    1.1301    0.3605 C   0  0  0  0  0  0  0  0  0  0  0  0
    4.3583    2.3518   -0.2899 C   0  0  0  0  0  0  0  0  0  0  0  0
    6.6940    3.1497    0.1774 C   0  0  0  0  0  0  0  0  0  0  0  0
    8.7559    4.3166    0.3686 C   0  0  0  0  0  0  0  0  0  0  0  0
   -2.3311    1.3955   -0.1195 H   0  0  0  0  0  0  0  0  0  0  0  0
   -3.3899    0.6551   -2.2292 H   0  0  0  0  0  0  0  0  0  0  0  0
   -4.7226   -0.0844   -1.3462 H   0  0  0  0  0  0  0  0  0  0  0  0
   -4.6661    0.0267    1.3258 H   0  0  0  0  0  0  0  0  0  0  0  0
   -3.2986    0.8349    2.0868 H   0  0  0  0  0  0  0  0  0  0  0  0
   -4.0587    2.9088   -1.4257 H   0  0  0  0  0  0  0  0  0  0  0  0
   -5.4294    2.1054   -2.1982 H   0  0  0  0  0  0  0  0  0  0  0  0
   -5.3312    2.2812    2.0293 H   0  0  0  0  0  0  0  0  0  0  0  0
   -4.0050    3.0145    1.1266 H   0  0  0  0  0  0  0  0  0  0  0  0
   -2.3652   -3.8157    0.1017 H   0  0  0  0  0  0  0  0  0  0  0  0
    2.9357   -4.2634   -0.0351 H   0  0  0  0  0  0  0  0  0  0  0  0
    2.3164   -3.8025    1.5671 H   0  0  0  0  0  0  0  0  0  0  0  0
   -0.6345   -4.6672   -1.3557 H   0  0  0  0  0  0  0  0  0  0  0  0
    1.0454   -4.8125   -1.8818 H   0  0  0  0  0  0  0  0  0  0  0  0
    3.0182   -6.2098    1.4579 H   0  0  0  0  0  0  0  0  0  0  0  0
    1.3129   -6.0318    1.8920 H   0  0  0  0  0  0  0  0  0  0  0  0
   -0.3424   -6.5095    0.2766 H   0  0  0  0  0  0  0  0  0  0  0  0
    0.1564   -7.0353   -1.3369 H   0  0  0  0  0  0  0  0  0  0  0  0
   -9.0991    3.0420    2.2420 H   0  0  0  0  0  0  0  0  0  0  0  0
   -9.3825    2.1368    0.7386 H   0  0  0  0  0  0  0  0  0  0  0  0
   -9.0290    3.9020    0.6878 H   0  0  0  0  0  0  0  0  0  0  0  0
    1.1442    2.0077   -1.3068 H   0  0  0  0  0  0  0  0  0  0  0  0
    3.6447   -0.7242    0.9419 H   0  0  0  0  0  0  0  0  0  0  0  0
    2.9851    3.6056   -1.3951 H   0  0  0  0  0  0  0  0  0  0  0  0
    5.4498    0.8251    0.8442 H   0  0  0  0  0  0  0  0  0  0  0  0
    5.2128    4.1375   -0.8363 H   0  0  0  0  0  0  0  0  0  0  0  0
    9.1981    5.2712    0.0714 H   0  0  0  0  0  0  0  0  0  0  0  0
    9.3355    3.5054   -0.0821 H   0  0  0  0  0  0  0  0  0  0  0  0
    8.7733    4.2461    1.4603 H   0  0  0  0  0  0  0  0  0  0  0  0
  1 26  1  0  0  0  0
  1 27  1  0  0  0  0
  2 21  1  0  0  0  0
  2 29  1  0  0  0  0
  3 21  2  0  0  0  0
  4 35  1  0  0  0  0
  4 36  1  0  0  0  0
  5 35  2  0  0  0  0
  6  8  1  0  0  0  0
  6 13  1  0  0  0  0
  6 18  1  0  0  0  0
  7 16  1  0  0  0  0
  7 17  1  0  0  0  0
  7 21  1  0  0  0  0
  8 22  2  0  0  0  0
  9 20  1  0  0  0  0
  9 23  1  0  0  0  0
  9 24  1  0  0  0  0
 10 18  1  0  0  0  0
 10 25  2  0  0  0  0
 11 20  2  0  0  0  0
 11 25  1  0  0  0  0
 12 34  1  0  0  0  0
 12 35  1  0  0  0  0
 12 62  1  0  0  0  0
 13 14  1  0  0  0  0
 13 15  1  0  0  0  0
 13 37  1  0  0  0  0
 14 16  1  0  0  0  0
 14 38  1  0  0  0  0
 14 39  1  0  0  0  0
 15 17  1  0  0  0  0
 15 40  1  0  0  0  0
 15 41  1  0  0  0  0
 16 42  1  0  0  0  0
 16 43  1  0  0  0  0
 17 44  1  0  0  0  0
 17 45  1  0  0  0  0
 18 19  2  0  0  0  0
 19 20  1  0  0  0  0
 19 22  1  0  0  0  0
 22 46  1  0  0  0  0
 23 26  1  0  0  0  0
 23 47  1  0  0  0  0
 23 48  1  0  0  0  0
 24 27  1  0  0  0  0
 24 49  1  0  0  0  0
 24 50  1  0  0  0  0
 25 28  1  0  0  0  0
 26 51  1  0  0  0  0
 26 52  1  0  0  0  0
 27 53  1  0  0  0  0
 27 54  1  0  0  0  0
 28 30  2  0  0  0  0
 28 31  1  0  0  0  0
 29 55  1  0  0  0  0
 29 56  1  0  0  0  0
 29 57  1  0  0  0  0
 30 32  1  0  0  0  0
 30 58  1  0  0  0  0
 31 33  2  0  0  0  0
 31 59  1  0  0  0  0
 32 34  2  0  0  0  0
 32 60  1  0  0  0  0
 33 34  1  0  0  0  0
 33 61  1  0  0  0  0
 36 63  1  0  0  0  0
 36 64  1  0  0  0  0
 36 65  1  0  0  0  0
M  END
> <PUBCHEM_COMPOUND_CID>
44219749

> <PUBCHEM_CONFORMER_RMSD>
1

> <PUBCHEM_CONFORMER_DIVERSEORDER>
1
77
73
51
12
42
34
80
53
85
83
33
63
59
57
3
21
70
72
76
74
49
38
28
60
81
58
19
50
54
14
64
37
9
2
44
62
52
48
32
18
68
39
35
43
45
8
84
20
40
46
67
66
29
4
82
41
24
5
26
78
79
36
6
31
47
71
65
56
30
55
25
61
17
11
15
75
13
27
23
22
69
7
10
16

> <PUBCHEM_MMFF94_PARTIAL_CHARGES>
38
1 -0.56
10 -0.57
11 -0.62
12 -0.55
13 0.26
16 0.3
17 0.3
18 0.11
2 -0.43
20 0.41
21 0.78
22 0.14
23 0.37
24 0.37
25 0.62
26 0.28
27 0.28
29 0.28
3 -0.57
30 -0.15
31 -0.15
32 -0.15
33 -0.15
34 0.12
35 0.78
36 0.28
4 -0.43
46 0.15
5 -0.57
58 0.15
59 0.15
6 0.31
60 0.15
61 0.15
62 0.37
7 -0.66
8 -0.71
9 -0.84

> <PUBCHEM_EFFECTIVE_ROTOR_COUNT>
10.4

> <PUBCHEM_PHARMACOPHORE_FEATURES>
12
1 1 acceptor
1 12 donor
1 3 acceptor
1 5 acceptor
1 8 acceptor
3 10 11 25 cation
3 9 11 20 cation
5 6 8 18 19 22 rings
6 1 9 23 24 26 27 rings
6 10 11 18 19 20 25 rings
6 28 30 31 32 33 34 rings
6 7 13 14 15 16 17 rings

> <PUBCHEM_HEAVY_ATOM_COUNT>
36

> <PUBCHEM_ATOM_DEF_STEREO_COUNT>
0

> <PUBCHEM_ATOM_UDEF_STEREO_COUNT>
0

> <PUBCHEM_BOND_DEF_STEREO_COUNT>
0

> <PUBCHEM_BOND_UDEF_STEREO_COUNT>
0

> <PUBCHEM_ISOTOPIC_ATOM_COUNT>
0

> <PUBCHEM_COMPONENT_COUNT>
1

> <PUBCHEM_CACTVS_TAUTO_COUNT>
7

> <PUBCHEM_CONFORMER_ID>
02A2BD6500000001

> <PUBCHEM_MMFF94_ENERGY>
95.4745

> <PUBCHEM_FEATURE_SELFOVERLAP>
61.126

> <PUBCHEM_SHAPE_FINGERPRINT>
10050765 1 18338237064718401515
10190206 1 18199173166003614503
10411042 1 16969703876398703630
10675989 125 18341055108408237572
11763715 3 16748198462799691478
12061779 8 17058395599843487145
12107183 9 18262786459390213464
12166972 35 17838612254879395035
12788726 201 17833255794637526946
13008946 119 18271243923267023960
13248334 5 18194964041575984542
13540713 5 18199733796717341767
14294032 229 18200315562716433167
14849402 71 18122914118570589299
15081414 286 17905884782164983423
15131766 46 18342166736382401109
15152005 290 18411418448816144164
15297060 5 18342176699772650105
15400415 2 18337951289856896452
15420108 30 18335689594517435586
15439362 3 18337670806568712103
15685185 35 18343587378156311361
15890870 6 18411701010398774121
15980000 95 17619635683628722366
16990350 14 18267590104895857968
19304671 126 17917161519627775124
19309040 13 18343578517637617255
19319366 153 18271804584435509381
20505436 4 18060136535968006597
21033648 144 18041264535384040581
21033648 29 18336274530361024908
21049683 271 17901681362170829262
21133410 32 14979109366033884084
22311459 1 18194402187123930462
23522609 53 17559402354159255913
23523787 8 15482671277508273621
23729398 52 18194408784357318582
24771750 20 18262253118124446134
283562 15 18194962070586915895
3418910 222 16751844460685692512
3627633 1 17474950303989133030
4144715 1 17907300202508933768
4403749 210 18264771132695422920
4516262 110 18410567354645885853
5219985 13 18410014368335491924
5385378 56 18337673005829487385
563151 97 18339352054716936991
6058803 2 17682390696657908036
6086070 43 17322665276915585637
6327066 14 18409726283499590773
6376802 90 18196944486151714478
6695519 79 18124630628094450907
6700243 42 17116678812750144732
77188 2 17618221706979541078
9896288 288 18045785843172732570
9962374 69 18122616164485274815
9981440 41 18336267950217880899

> <PUBCHEM_SHAPE_MULTIPOLES>
676.65
19.94
9.67
1.05
7.1
19.04
-0.01
-47.33
3.96
-11.27
0.37
1.18
-0.24
-0.93

> <PUBCHEM_SHAPE_SELFOVERLAP>
1456.852

> <PUBCHEM_SHAPE_VOLUME>
369.2

> <PUBCHEM_COORDINATE_TYPE>
2
5
10

$$$$
