49830489
  -OEChem-10052115183D

 45 47  0     1  0  0  0  0  0999 V2000
    5.0634   -2.7121   -0.7826 O   0  0  0  0  0  0  0  0  0  0  0  0
    0.5370    3.2477    0.0297 O   0  0  0  0  0  0  0  0  0  0  0  0
    1.5344    1.1920   -0.3649 N   0  0  0  0  0  0  0  0  0  0  0  0
   -7.1841   -1.7169    0.1584 N   0  0  0  0  0  0  0  0  0  0  0  0
    2.8960    1.6738   -0.4195 C   0  0  1  0  0  0  0  0  0  0  0  0
    3.8726    0.6353    0.0888 C   0  0  0  0  0  0  0  0  0  0  0  0
    3.2288    2.1496   -1.8321 C   0  0  0  0  0  0  0  0  0  0  0  0
    4.0201   -0.5747   -0.5893 C   0  0  0  0  0  0  0  0  0  0  0  0
    4.6246    0.8881    1.2360 C   0  0  0  0  0  0  0  0  0  0  0  0
    0.4285    2.0204   -0.1410 C   0  0  0  0  0  0  0  0  0  0  0  0
   -0.8761    1.3803   -0.0896 C   0  0  0  0  0  0  0  0  0  0  0  0
    4.9199   -1.5318   -0.1203 C   0  0  0  0  0  0  0  0  0  0  0  0
   -3.3791    0.1524    0.0087 C   0  0  0  0  0  0  0  0  0  0  0  0
    5.5242   -0.0690    1.7051 C   0  0  0  0  0  0  0  0  0  0  0  0
   -1.9079    1.9585    0.6497 C   0  0  0  0  0  0  0  0  0  0  0  0
   -1.0956    0.1881   -0.7797 C   0  0  0  0  0  0  0  0  0  0  0  0
    5.6719   -1.2791    1.0270 C   0  0  0  0  0  0  0  0  0  0  0  0
   -3.1594    1.3445    0.6989 C   0  0  0  0  0  0  0  0  0  0  0  0
   -2.3470   -0.4259   -0.7305 C   0  0  0  0  0  0  0  0  0  0  0  0
   -4.6769   -0.4847    0.0600 C   0  0  0  0  0  0  0  0  0  0  0  0
   -5.8261    0.2824    0.2169 C   0  0  0  0  0  0  0  0  0  0  0  0
   -4.7800   -1.8672   -0.0478 C   0  0  0  0  0  0  0  0  0  0  0  0
   -7.0444   -0.3760    0.2597 C   0  0  0  0  0  0  0  0  0  0  0  0
   -6.0452   -2.4294    0.0068 C   0  0  0  0  0  0  0  0  0  0  0  0
    6.0005   -3.6463   -0.2484 C   0  0  0  0  0  0  0  0  0  0  0  0
    2.9529    2.5545    0.2333 H   0  0  0  0  0  0  0  0  0  0  0  0
    1.3972    0.1916   -0.4624 H   0  0  0  0  0  0  0  0  0  0  0  0
    4.2602    2.5141   -1.8921 H   0  0  0  0  0  0  0  0  0  0  0  0
    2.5649    2.9677   -2.1336 H   0  0  0  0  0  0  0  0  0  0  0  0
    3.1102    1.3511   -2.5732 H   0  0  0  0  0  0  0  0  0  0  0  0
    3.4374   -0.7866   -1.4823 H   0  0  0  0  0  0  0  0  0  0  0  0
    4.5210    1.8255    1.7759 H   0  0  0  0  0  0  0  0  0  0  0  0
    6.1094    0.1288    2.5986 H   0  0  0  0  0  0  0  0  0  0  0  0
   -1.7536    2.8813    1.2031 H   0  0  0  0  0  0  0  0  0  0  0  0
   -0.3334   -0.2754   -1.3991 H   0  0  0  0  0  0  0  0  0  0  0  0
    6.3880   -1.9777    1.4459 H   0  0  0  0  0  0  0  0  0  0  0  0
   -3.9237    1.8148    1.3115 H   0  0  0  0  0  0  0  0  0  0  0  0
   -2.4830   -1.3334   -1.3126 H   0  0  0  0  0  0  0  0  0  0  0  0
   -5.8198    1.3652    0.2784 H   0  0  0  0  0  0  0  0  0  0  0  0
   -3.9240   -2.5263   -0.1432 H   0  0  0  0  0  0  0  0  0  0  0  0
   -7.9712    0.1768    0.3736 H   0  0  0  0  0  0  0  0  0  0  0  0
   -6.1796   -3.5037   -0.0654 H   0  0  0  0  0  0  0  0  0  0  0  0
    7.0212   -3.2496   -0.2706 H   0  0  0  0  0  0  0  0  0  0  0  0
    5.7075   -3.9828    0.7518 H   0  0  0  0  0  0  0  0  0  0  0  0
    5.9856   -4.5269   -0.8990 H   0  0  0  0  0  0  0  0  0  0  0  0
  1 12  1  0  0  0  0
  1 25  1  0  0  0  0
  2 10  2  0  0  0  0
  3  5  1  0  0  0  0
  3 10  1  0  0  0  0
  3 27  1  0  0  0  0
  4 23  2  0  0  0  0
  4 24  1  0  0  0  0
  5  6  1  0  0  0  0
  5  7  1  0  0  0  0
  5 26  1  0  0  0  0
  6  8  2  0  0  0  0
  6  9  1  0  0  0  0
  7 28  1  0  0  0  0
  7 29  1  0  0  0  0
  7 30  1  0  0  0  0
  8 12  1  0  0  0  0
  8 31  1  0  0  0  0
  9 14  2  0  0  0  0
  9 32  1  0  0  0  0
 10 11  1  0  0  0  0
 11 15  2  0  0  0  0
 11 16  1  0  0  0  0
 12 17  2  0  0  0  0
 13 18  2  0  0  0  0
 13 19  1  0  0  0  0
 13 20  1  0  0  0  0
 14 17  1  0  0  0  0
 14 33  1  0  0  0  0
 15 18  1  0  0  0  0
 15 34  1  0  0  0  0
 16 19  2  0  0  0  0
 16 35  1  0  0  0  0
 17 36  1  0  0  0  0
 18 37  1  0  0  0  0
 19 38  1  0  0  0  0
 20 21  2  0  0  0  0
 20 22  1  0  0  0  0
 21 23  1  0  0  0  0
 21 39  1  0  0  0  0
 22 24  2  0  0  0  0
 22 40  1  0  0  0  0
 23 41  1  0  0  0  0
 24 42  1  0  0  0  0
 25 43  1  0  0  0  0
 25 44  1  0  0  0  0
 25 45  1  0  0  0  0
M  END
> <PUBCHEM_COMPOUND_CID>
49830489

> <PUBCHEM_CONFORMER_RMSD>
0.8

> <PUBCHEM_CONFORMER_DIVERSEORDER>
3
16
46
10
19
42
43
6
38
4
30
34
40
44
47
11
35
36
12
25
45
39
20
22
29
28
13
8
31
41
7
37
5
23
17
32
24
27
14
15
9
33
18
21
1
2
26

> <PUBCHEM_MMFF94_PARTIAL_CHARGES>
35
1 -0.36
10 0.54
11 0.09
12 0.08
14 -0.15
15 -0.15
16 -0.15
17 -0.15
18 -0.15
19 -0.15
2 -0.57
21 -0.15
22 -0.15
23 0.16
24 0.16
25 0.28
27 0.37
3 -0.73
31 0.15
32 0.15
33 0.15
34 0.15
35 0.15
36 0.15
37 0.15
38 0.15
39 0.15
4 -0.62
40 0.15
41 0.15
42 0.15
5 0.44
6 -0.14
8 -0.15
9 -0.15

> <PUBCHEM_EFFECTIVE_ROTOR_COUNT>
6

> <PUBCHEM_PHARMACOPHORE_FEATURES>
7
1 1 acceptor
1 2 acceptor
1 3 donor
1 4 acceptor
6 11 13 15 16 18 19 rings
6 4 20 21 22 23 24 rings
6 6 8 9 12 14 17 rings

> <PUBCHEM_HEAVY_ATOM_COUNT>
25

> <PUBCHEM_ATOM_DEF_STEREO_COUNT>
0

> <PUBCHEM_ATOM_UDEF_STEREO_COUNT>
1

> <PUBCHEM_BOND_DEF_STEREO_COUNT>
0

> <PUBCHEM_BOND_UDEF_STEREO_COUNT>
0

> <PUBCHEM_ISOTOPIC_ATOM_COUNT>
0

> <PUBCHEM_COMPONENT_COUNT>
1

> <PUBCHEM_CACTVS_TAUTO_COUNT>
2

> <PUBCHEM_CONFORMER_ID>
02F85A5900000003

> <PUBCHEM_MMFF94_ENERGY>
86.0086

> <PUBCHEM_FEATURE_SELFOVERLAP>
35.522

> <PUBCHEM_SHAPE_FINGERPRINT>
10 15 16773514464219968305
10554248 39 18261103128236085733
10670039 82 12108049060034997574
10673678 19 8790887397549750257
11399510 152 17488448703595775330
11409948 8 18201142263256259786
11443803 9 18115031944110094756
117089 54 18125731084816095494
11719270 70 18201722860227408631
1200032 147 14332548099762872298
12107183 9 18269004094150106753
12166972 35 17967256390258942006
12422481 6 17489588930838179983
12596602 18 17918275337606251090
12623949 98 18059298652605642030
12661589 4 18272384083066883966
13533116 47 18410014372519825488
13551218 46 18342737412158282095
1361 4 18189340250353715507
13782708 43 17967812803894792787
13911852 28 18411418401723796271
14211702 104 18409736187762591211
14216079 64 18410291402701217907
14251740 57 18412546488296675566
14347332 77 18259982674163566597
14528608 73 8790890678804609049
15001296 14 18041837427812692803
15042514 8 18340207371610823753
15183329 4 12252177450808730999
15188451 53 18410848854637486808
15250474 111 18055346105250018127
15419008 42 18125153845505519677
15475509 35 18200871897697194920
15475509 8 16226041185585732461
16120349 21 18269846319834858521
16992610 120 18051415365343038960
17492 89 18338517444114019700
1768 124 18343297097889501390
17857418 61 18409730694483205457
1813 80 17968378957883508220
193927 3 18113908134786409400
1979834 28 17417822746046861278
20028762 73 18410292484906941282
20567600 234 15195284270051272369
21033648 29 14692578667138704440
21049683 118 12031498848833450708
21130935 74 18343022224820596987
21315763 87 18201433709827349626
21344244 181 17967539003676838819
21682296 61 18410860932402241827
21792934 111 18201443528771310801
23522609 53 18118998938480915437
23559900 14 18264764532248417673
270888 7 9367336029592705422
2748736 6 9583229505430183570
2838139 119 9511190616074491515
3004659 81 18259989301039323108
312425 54 18059861610241324864
3383291 50 18334012826432422419
3472631 163 8214140763585769528
34797466 226 11602814679964405297
3610482 184 14997129021414128446
3680242 22 18341623632839156743
3886686 26 17409664146446196490
393628 194 9942077141738132906
406291 66 17315054599141515042
46194498 28 17385723642604388324
465052 167 18339929319854144077
474113 269 18201429290965547575
5104073 3 17917996040172905416
559249 180 18409445887229025593
56633871 153 18201433675167314159
5718773 13 18336825274186397026
59682541 52 15213007250375739082
7970288 3 18336827485915193226
9849439 229 11311473820035948562

> <PUBCHEM_SHAPE_MULTIPOLES>
492.79
19.45
3.28
1.11
11.58
1.29
0.02
16.7
3.26
-3.29
-0.55
-1.62
-0.29
-0.22

> <PUBCHEM_SHAPE_SELFOVERLAP>
1068.201

> <PUBCHEM_SHAPE_VOLUME>
268.3

> <PUBCHEM_COORDINATE_TYPE>
2
5
10

$$$$
