10047202
  -OEChem-10052115173D

 72 74  0     1  0  0  0  0  0999 V2000
    2.7306   -2.8330   -1.3681 O   0  0  0  0  0  0  0  0  0  0  0  0
    7.6425    0.9785   -1.3060 O   0  0  0  0  0  0  0  0  0  0  0  0
   -0.9118   -1.9530    0.4210 C   0  0  1  0  0  0  0  0  0  0  0  0
    0.3588   -1.0874    0.5851 C   0  0  1  0  0  0  0  0  0  0  0  0
   -1.9868   -0.8453    0.5440 C   0  0  2  0  0  0  0  0  0  0  0  0
    0.0445   -0.2113    1.7948 C   0  0  0  0  0  0  0  0  0  0  0  0
   -1.4709    0.0405    1.7004 C   0  0  0  0  0  0  0  0  0  0  0  0
    1.6488   -1.9063    0.5954 C   0  0  1  0  0  0  0  0  0  0  0  0
   -0.8409   -2.6205   -0.9618 C   0  0  0  0  0  0  0  0  0  0  0  0
   -3.4219   -1.3087    0.7489 C   0  0  1  0  0  0  0  0  0  0  0  0
   -1.0871   -3.0318    1.5169 C   0  0  0  0  0  0  0  0  0  0  0  0
    0.4330   -3.4555   -1.1257 C   0  0  0  0  0  0  0  0  0  0  0  0
    1.6943   -2.7060   -0.7138 C   0  0  0  0  0  0  0  0  0  0  0  0
    2.8806   -1.0144    0.7395 C   0  0  0  0  0  0  0  0  0  0  0  0
   -4.4169   -0.1334    0.8572 C   0  0  0  0  0  0  0  0  0  0  0  0
   -3.8430   -2.2327   -0.4001 C   0  0  0  0  0  0  0  0  0  0  0  0
    2.9517    0.0132   -0.3872 C   0  0  0  0  0  0  0  0  0  0  0  0
   -4.4612    0.7391   -0.4042 C   0  0  0  0  0  0  0  0  0  0  0  0
    4.1541    0.9101   -0.2402 C   0  0  0  0  0  0  0  0  0  0  0  0
   -5.4679    1.8682   -0.2852 C   0  0  0  0  0  0  0  0  0  0  0  0
   -6.8650    1.5962   -0.8322 C   0  0  0  0  0  0  0  0  0  0  0  0
    4.0663    2.0908    0.4838 C   0  0  0  0  0  0  0  0  0  0  0  0
    5.3448    0.5277   -0.8428 C   0  0  0  0  0  0  0  0  0  0  0  0
   -5.0947    3.0347    0.2687 C   0  0  0  0  0  0  0  0  0  0  0  0
   -7.9962    2.3234   -0.0937 C   0  0  0  0  0  0  0  0  0  0  0  0
   -6.9315    1.9252   -2.3268 C   0  0  0  0  0  0  0  0  0  0  0  0
    5.1917    2.9055    0.6080 C   0  0  0  0  0  0  0  0  0  0  0  0
    6.4700    1.3426   -0.7185 C   0  0  0  0  0  0  0  0  0  0  0  0
    2.7908    2.5121    1.1360 C   0  0  0  0  0  0  0  0  0  0  0  0
    6.3935    2.5314    0.0069 C   0  0  0  0  0  0  0  0  0  0  0  0
    0.3764   -0.4249   -0.2922 H   0  0  0  0  0  0  0  0  0  0  0  0
   -1.9322   -0.2454   -0.3746 H   0  0  0  0  0  0  0  0  0  0  0  0
    0.2894   -0.7197    2.7339 H   0  0  0  0  0  0  0  0  0  0  0  0
    0.5917    0.7321    1.7744 H   0  0  0  0  0  0  0  0  0  0  0  0
   -1.6780    1.0974    1.4985 H   0  0  0  0  0  0  0  0  0  0  0  0
   -1.9433   -0.2099    2.6571 H   0  0  0  0  0  0  0  0  0  0  0  0
    1.6575   -2.6267    1.4201 H   0  0  0  0  0  0  0  0  0  0  0  0
   -0.8603   -1.8548   -1.7482 H   0  0  0  0  0  0  0  0  0  0  0  0
   -1.6760   -3.2931   -1.1569 H   0  0  0  0  0  0  0  0  0  0  0  0
   -3.5100   -1.8713    1.6867 H   0  0  0  0  0  0  0  0  0  0  0  0
   -1.2044   -2.5958    2.5141 H   0  0  0  0  0  0  0  0  0  0  0  0
   -0.2345   -3.7143    1.5721 H   0  0  0  0  0  0  0  0  0  0  0  0
   -1.9653   -3.6575    1.3323 H   0  0  0  0  0  0  0  0  0  0  0  0
    0.3816   -4.3745   -0.5329 H   0  0  0  0  0  0  0  0  0  0  0  0
    0.5338   -3.7500   -2.1766 H   0  0  0  0  0  0  0  0  0  0  0  0
    3.7869   -1.6343    0.7315 H   0  0  0  0  0  0  0  0  0  0  0  0
    2.8652   -0.5186    1.7170 H   0  0  0  0  0  0  0  0  0  0  0  0
   -5.4197   -0.5346    1.0565 H   0  0  0  0  0  0  0  0  0  0  0  0
   -4.1658    0.4847    1.7279 H   0  0  0  0  0  0  0  0  0  0  0  0
   -4.9362   -2.3128   -0.4453 H   0  0  0  0  0  0  0  0  0  0  0  0
   -3.5076   -1.8742   -1.3781 H   0  0  0  0  0  0  0  0  0  0  0  0
   -3.4953   -3.2556   -0.2417 H   0  0  0  0  0  0  0  0  0  0  0  0
    3.0101   -0.4643   -1.3714 H   0  0  0  0  0  0  0  0  0  0  0  0
    2.0587    0.6367   -0.4478 H   0  0  0  0  0  0  0  0  0  0  0  0
   -3.4769    1.1812   -0.5963 H   0  0  0  0  0  0  0  0  0  0  0  0
   -4.6982    0.1425   -1.2917 H   0  0  0  0  0  0  0  0  0  0  0  0
   -7.0648    0.5229   -0.7110 H   0  0  0  0  0  0  0  0  0  0  0  0
    5.4110   -0.3988   -1.4072 H   0  0  0  0  0  0  0  0  0  0  0  0
   -5.7743    3.8738    0.3598 H   0  0  0  0  0  0  0  0  0  0  0  0
   -4.0857    3.1800    0.6418 H   0  0  0  0  0  0  0  0  0  0  0  0
   -7.9653    3.4058   -0.2582 H   0  0  0  0  0  0  0  0  0  0  0  0
   -8.9711    1.9672   -0.4453 H   0  0  0  0  0  0  0  0  0  0  0  0
   -7.9449    2.1367    0.9845 H   0  0  0  0  0  0  0  0  0  0  0  0
   -6.1801    1.3625   -2.8914 H   0  0  0  0  0  0  0  0  0  0  0  0
   -7.9140    1.6672   -2.7368 H   0  0  0  0  0  0  0  0  0  0  0  0
   -6.7600    2.9920   -2.5097 H   0  0  0  0  0  0  0  0  0  0  0  0
    5.1500    3.8348    1.1700 H   0  0  0  0  0  0  0  0  0  0  0  0
    1.9747    2.5963    0.4126 H   0  0  0  0  0  0  0  0  0  0  0  0
    2.8907    3.5004    1.6001 H   0  0  0  0  0  0  0  0  0  0  0  0
    2.5247    1.8180    1.9365 H   0  0  0  0  0  0  0  0  0  0  0  0
    7.2629    3.1750    0.1111 H   0  0  0  0  0  0  0  0  0  0  0  0
    8.3132    1.6574   -1.1181 H   0  0  0  0  0  0  0  0  0  0  0  0
  1 13  2  0  0  0  0
  2 28  1  0  0  0  0
  2 72  1  0  0  0  0
  3  4  1  0  0  0  0
  3  5  1  0  0  0  0
  3  9  1  0  0  0  0
  3 11  1  0  0  0  0
  4  6  1  0  0  0  0
  4  8  1  0  0  0  0
  4 31  1  0  0  0  0
  5  7  1  0  0  0  0
  5 10  1  0  0  0  0
  5 32  1  0  0  0  0
  6  7  1  0  0  0  0
  6 33  1  0  0  0  0
  6 34  1  0  0  0  0
  7 35  1  0  0  0  0
  7 36  1  0  0  0  0
  8 13  1  0  0  0  0
  8 14  1  0  0  0  0
  8 37  1  0  0  0  0
  9 12  1  0  0  0  0
  9 38  1  0  0  0  0
  9 39  1  0  0  0  0
 10 15  1  0  0  0  0
 10 16  1  0  0  0  0
 10 40  1  0  0  0  0
 11 41  1  0  0  0  0
 11 42  1  0  0  0  0
 11 43  1  0  0  0  0
 12 13  1  0  0  0  0
 12 44  1  0  0  0  0
 12 45  1  0  0  0  0
 14 17  1  0  0  0  0
 14 46  1  0  0  0  0
 14 47  1  0  0  0  0
 15 18  1  0  0  0  0
 15 48  1  0  0  0  0
 15 49  1  0  0  0  0
 16 50  1  0  0  0  0
 16 51  1  0  0  0  0
 16 52  1  0  0  0  0
 17 19  1  0  0  0  0
 17 53  1  0  0  0  0
 17 54  1  0  0  0  0
 18 20  1  0  0  0  0
 18 55  1  0  0  0  0
 18 56  1  0  0  0  0
 19 22  2  0  0  0  0
 19 23  1  0  0  0  0
 20 21  1  0  0  0  0
 20 24  2  0  0  0  0
 21 25  1  0  0  0  0
 21 26  1  0  0  0  0
 21 57  1  0  0  0  0
 22 27  1  0  0  0  0
 22 29  1  0  0  0  0
 23 28  2  0  0  0  0
 23 58  1  0  0  0  0
 24 59  1  0  0  0  0
 24 60  1  0  0  0  0
 25 61  1  0  0  0  0
 25 62  1  0  0  0  0
 25 63  1  0  0  0  0
 26 64  1  0  0  0  0
 26 65  1  0  0  0  0
 26 66  1  0  0  0  0
 27 30  2  0  0  0  0
 27 67  1  0  0  0  0
 28 30  1  0  0  0  0
 29 68  1  0  0  0  0
 29 69  1  0  0  0  0
 29 70  1  0  0  0  0
 30 71  1  0  0  0  0
M  END
> <PUBCHEM_COMPOUND_CID>
10047202

> <PUBCHEM_CONFORMER_RMSD>
1

> <PUBCHEM_CONFORMER_DIVERSEORDER>
2
23
25
13
28
4
37
21
34
26
31
9
14
33
40
3
5
16
35
30
29
17
27
19
36
24
42
15
38
39
20
7
32
12
18
11
6
1
41
22
8
10

> <PUBCHEM_MMFF94_PARTIAL_CHARGES>
23
1 -0.57
12 0.06
13 0.45
17 0.14
18 0.14
19 -0.14
2 -0.53
20 -0.28
21 0.14
22 -0.14
23 -0.15
24 -0.3
27 -0.15
28 0.08
29 0.14
30 -0.15
58 0.15
59 0.15
60 0.15
67 0.15
71 0.15
72 0.45
8 0.06

> <PUBCHEM_EFFECTIVE_ROTOR_COUNT>
9.2

> <PUBCHEM_PHARMACOPHORE_FEATURES>
9
1 1 acceptor
1 16 hydrophobe
1 2 donor
1 24 hydrophobe
3 21 25 26 hydrophobe
5 10 15 18 20 21 hydrophobe
5 3 4 5 6 7 rings
6 19 22 23 27 28 30 rings
6 3 4 8 9 12 13 rings

> <PUBCHEM_HEAVY_ATOM_COUNT>
30

> <PUBCHEM_ATOM_DEF_STEREO_COUNT>
5

> <PUBCHEM_ATOM_UDEF_STEREO_COUNT>
0

> <PUBCHEM_BOND_DEF_STEREO_COUNT>
0

> <PUBCHEM_BOND_UDEF_STEREO_COUNT>
0

> <PUBCHEM_ISOTOPIC_ATOM_COUNT>
0

> <PUBCHEM_COMPONENT_COUNT>
1

> <PUBCHEM_CACTVS_TAUTO_COUNT>
27

> <PUBCHEM_CONFORMER_ID>
00994EE200000002

> <PUBCHEM_MMFF94_ENERGY>
90.1848

> <PUBCHEM_FEATURE_SELFOVERLAP>
45.761

> <PUBCHEM_SHAPE_FINGERPRINT>
10006869 2 18114730539266240284
10483366 6 18271808995166813448
105312 117 18337109072138657726
10673678 19 18341614785401367991
10675989 125 18265897943351207427
11297010 23 18202568359036307246
11578080 2 18333448733706119031
11621639 254 17910668001733115901
12293681 160 17989492921882593523
12422481 6 17675925399801555876
12769317 202 18343581837030249168
13150687 139 18343024367423494654
13540713 4 18263946413355313483
13673619 4 11167939160681692521
13690498 29 17487327382193044543
13911987 19 17988927769280835707
13944108 23 18196373624030517136
14117953 113 18201163149291362166
14251764 30 9079119951097225252
14747281 78 18200888262282292869
14950920 106 12685103574898868373
15082195 135 18059573533931716747
15183329 4 18272089383427120881
15198563 99 17766836504779878839
15238133 3 17385734625057011052
15510800 12 11743830391769116861
15575132 122 18339646740611850320
15803439 3 17275103959260831094
15961568 22 18186801357793699493
17899979 129 18270405967005817517
17980427 26 18188757358545930947
18335252 114 18341609274858061638
19438510 23 18259704493236290009
20715895 44 18411417306618016112
21033648 29 17676498236907036891
21859007 373 18340759425812269440
22121540 332 18115582635171364452
22393880 68 18130503140671642818
23559900 14 18270966717731223050
2838139 119 18338517551271781326
4058900 60 18335709320927725810
4112364 45 17749941160151362659
4173938 306 17632004326511128128
439807 62 12031785873071319925
46194498 28 18126844894399471143
6327066 14 18410574024159935652
7970288 3 9222963560006956432

> <PUBCHEM_SHAPE_MULTIPOLES>
605.65
18.93
4.42
1.51
7.34
1.04
-0.11
-24.62
-7.79
0.24
-0.51
0.7
0.17
1.85

> <PUBCHEM_SHAPE_SELFOVERLAP>
1257.802

> <PUBCHEM_SHAPE_VOLUME>
346.9

> <PUBCHEM_COORDINATE_TYPE>
2
5
10

$$$$
