49830426
  -OEChem-10052115173D

 43 45  0     0  0  0  0  0  0999 V2000
   -4.7119    3.3125   -0.0234 F   0  0  0  0  0  0  0  0  0  0  0  0
   -7.2919   -2.4036   -0.0246 F   0  0  0  0  0  0  0  0  0  0  0  0
   -5.4392   -2.8529   -1.0702 F   0  0  0  0  0  0  0  0  0  0  0  0
   -5.4804   -2.8349    1.0981 F   0  0  0  0  0  0  0  0  0  0  0  0
   -1.4624   -0.5597    0.0715 O   0  0  0  0  0  0  0  0  0  0  0  0
    8.9272   -1.1774    0.3369 O   0  0  0  0  0  0  0  0  0  0  0  0
   -0.3122    1.4816    0.0773 N   0  0  0  0  0  0  0  0  0  0  0  0
   -2.6218    1.4707    0.0327 N   0  0  0  0  0  0  0  0  0  0  0  0
    5.6606   -0.2681    1.3643 N   0  0  0  0  0  0  0  0  0  0  0  0
    6.9610   -0.6382    1.3918 N   0  0  0  0  0  0  0  0  0  0  0  0
    3.7040    0.3098    0.1672 C   0  0  0  0  0  0  0  0  0  0  0  0
    5.1187   -0.1042    0.1998 C   0  0  0  0  0  0  0  0  0  0  0  0
    1.0266    1.0908    0.1063 C   0  0  0  0  0  0  0  0  0  0  0  0
    5.8003   -0.3064   -1.1084 C   0  0  0  0  0  0  0  0  0  0  0  0
    2.6962   -0.6546    0.1542 C   0  0  0  0  0  0  0  0  0  0  0  0
    3.3729    1.6647    0.1501 C   0  0  0  0  0  0  0  0  0  0  0  0
    1.3576   -0.2642    0.1237 C   0  0  0  0  0  0  0  0  0  0  0  0
    2.0343    2.0552    0.1195 C   0  0  0  0  0  0  0  0  0  0  0  0
   -3.9740    1.0550    0.0100 C   0  0  0  0  0  0  0  0  0  0  0  0
   -5.6157   -0.7175   -0.0064 C   0  0  0  0  0  0  0  0  0  0  0  0
   -4.2834   -0.3051    0.0154 C   0  0  0  0  0  0  0  0  0  0  0  0
    7.0840   -0.6714   -1.0254 C   0  0  0  0  0  0  0  0  0  0  0  0
   -4.9972    2.0027   -0.0174 C   0  0  0  0  0  0  0  0  0  0  0  0
    5.0897   -0.1500   -2.4149 C   0  0  0  0  0  0  0  0  0  0  0  0
   -1.4709    0.6670    0.0615 C   0  0  0  0  0  0  0  0  0  0  0  0
   -6.6388    0.2303   -0.0336 C   0  0  0  0  0  0  0  0  0  0  0  0
   -6.3296    1.5904   -0.0392 C   0  0  0  0  0  0  0  0  0  0  0  0
   -5.9472   -2.1718   -0.0009 C   0  0  0  0  0  0  0  0  0  0  0  0
    7.7436   -0.8506    0.2842 C   0  0  0  0  0  0  0  0  0  0  0  0
    2.9443   -1.7130    0.1675 H   0  0  0  0  0  0  0  0  0  0  0  0
    4.1502    2.4245    0.1601 H   0  0  0  0  0  0  0  0  0  0  0  0
    0.6379   -1.0701    0.1152 H   0  0  0  0  0  0  0  0  0  0  0  0
    1.7908    3.1146    0.1065 H   0  0  0  0  0  0  0  0  0  0  0  0
   -3.5432   -1.0922    0.0361 H   0  0  0  0  0  0  0  0  0  0  0  0
   -0.4743    2.4855    0.0663 H   0  0  0  0  0  0  0  0  0  0  0  0
   -2.4782    2.4774    0.0273 H   0  0  0  0  0  0  0  0  0  0  0  0
    7.6830   -0.8570   -1.9105 H   0  0  0  0  0  0  0  0  0  0  0  0
    4.2455   -0.8430   -2.4845 H   0  0  0  0  0  0  0  0  0  0  0  0
    5.7507   -0.3574   -3.2637 H   0  0  0  0  0  0  0  0  0  0  0  0
    4.7189    0.8728   -2.5349 H   0  0  0  0  0  0  0  0  0  0  0  0
   -7.6828   -0.0697   -0.0509 H   0  0  0  0  0  0  0  0  0  0  0  0
   -7.1257    2.3287   -0.0605 H   0  0  0  0  0  0  0  0  0  0  0  0
    7.3479   -0.7494    2.3234 H   0  0  0  0  0  0  0  0  0  0  0  0
  1 23  1  0  0  0  0
  2 28  1  0  0  0  0
  3 28  1  0  0  0  0
  4 28  1  0  0  0  0
  5 25  2  0  0  0  0
  6 29  2  0  0  0  0
  7 13  1  0  0  0  0
  7 25  1  0  0  0  0
  7 35  1  0  0  0  0
  8 19  1  0  0  0  0
  8 25  1  0  0  0  0
  8 36  1  0  0  0  0
  9 10  1  0  0  0  0
  9 12  2  0  0  0  0
 10 29  1  0  0  0  0
 10 43  1  0  0  0  0
 11 12  1  0  0  0  0
 11 15  2  0  0  0  0
 11 16  1  0  0  0  0
 12 14  1  0  0  0  0
 13 17  2  0  0  0  0
 13 18  1  0  0  0  0
 14 22  2  0  0  0  0
 14 24  1  0  0  0  0
 15 17  1  0  0  0  0
 15 30  1  0  0  0  0
 16 18  2  0  0  0  0
 16 31  1  0  0  0  0
 17 32  1  0  0  0  0
 18 33  1  0  0  0  0
 19 21  1  0  0  0  0
 19 23  2  0  0  0  0
 20 21  2  0  0  0  0
 20 26  1  0  0  0  0
 20 28  1  0  0  0  0
 21 34  1  0  0  0  0
 22 29  1  0  0  0  0
 22 37  1  0  0  0  0
 23 27  1  0  0  0  0
 24 38  1  0  0  0  0
 24 39  1  0  0  0  0
 24 40  1  0  0  0  0
 26 27  2  0  0  0  0
 26 41  1  0  0  0  0
 27 42  1  0  0  0  0
M  END
> <PUBCHEM_COMPOUND_CID>
49830426

> <PUBCHEM_CONFORMER_RMSD>
0.8

> <PUBCHEM_CONFORMER_DIVERSEORDER>
1
37
34
13
33
12
20
36
2
32
14
19
11
28
35
29
10
18
27
7
31
9
21
26
23
8
15
24
30
3
16
6
25
17
22
4
5

> <PUBCHEM_MMFF94_PARTIAL_CHARGES>
40
1 -0.19
10 -0.37
11 0.09
12 0.35
13 0.12
14 -0.12
15 -0.15
16 -0.15
17 -0.15
18 -0.15
19 0.12
2 -0.34
20 -0.14
21 -0.15
22 -0.14
23 0.19
24 0.14
25 0.69
26 -0.15
27 -0.15
28 1.16
29 0.62
3 -0.34
30 0.15
31 0.15
32 0.15
33 0.15
34 0.15
35 0.37
36 0.37
37 0.15
4 -0.34
41 0.15
42 0.15
43 0.37
5 -0.57
6 -0.57
7 -0.55
8 -0.55
9 -0.51

> <PUBCHEM_EFFECTIVE_ROTOR_COUNT>
6

> <PUBCHEM_PHARMACOPHORE_FEATURES>
9
1 10 donor
1 5 acceptor
1 6 acceptor
1 7 donor
1 8 donor
1 9 acceptor
6 11 13 15 16 17 18 rings
6 19 20 21 23 26 27 rings
6 9 10 12 14 22 29 rings

> <PUBCHEM_HEAVY_ATOM_COUNT>
29

> <PUBCHEM_ATOM_DEF_STEREO_COUNT>
0

> <PUBCHEM_ATOM_UDEF_STEREO_COUNT>
0

> <PUBCHEM_BOND_DEF_STEREO_COUNT>
0

> <PUBCHEM_BOND_UDEF_STEREO_COUNT>
0

> <PUBCHEM_ISOTOPIC_ATOM_COUNT>
0

> <PUBCHEM_COMPONENT_COUNT>
1

> <PUBCHEM_CACTVS_TAUTO_COUNT>
44

> <PUBCHEM_CONFORMER_ID>
02F85A1A00000001

> <PUBCHEM_MMFF94_ENERGY>
86.6311

> <PUBCHEM_FEATURE_SELFOVERLAP>
45.721

> <PUBCHEM_SHAPE_FINGERPRINT>
10050765 1 18264490770563452592
10299344 5 17967253079023772440
11135926 11 18335134259725770047
11315181 36 18409168805677213993
11524674 6 16988563524676910191
11646440 116 17203611493178020544
11719270 70 18272650113409730406
11761917 87 15912504415512576878
11963148 33 18337102389745337518
11991303 11 15357707425898329586
12166972 35 18334579074340367004
13685833 64 18273215296672019464
13782708 43 18342457083832097531
14068700 675 18260551108479443516
14251757 52 10303518517136870298
14251764 18 18113338613875669548
14344974 204 17986950941663890031
15183329 4 18333733502653246113
15352257 5 18342741788645846630
15419008 47 17632569419052454736
15419008 91 18200293469041387280
15510794 2 17775284936988012158
1577012 14 17894636941864125964
18681886 176 18411414037947619376
18927931 339 18410296939362189231
21130935 74 18341046325163545162
21267235 1 18411140250946388009
21315759 40 17967253074860771452
21623969 137 17203897348583555862
2303208 19 17775011180030557084
23081809 10 17749112179665384508
23522609 53 17824286850545722092
23559900 14 18266731558640563057
249057 3 18409166598449243125
25025965 108 18201142356891211983
3004659 81 18334577941096371484
3383291 50 18272932760401361967
397830 11 17773864462691628600
4073 2 18187088390024911939
4340502 62 15626219105664047828
504579 68 18113893875647753415
5104073 3 18271524286322322409
58083652 198 15410884163398616011
58902169 19 17458070373597829886
59682541 35 17917985084708053400
6441014 3 17684939390170920755

> <PUBCHEM_SHAPE_MULTIPOLES>
536.05
25.89
2.48
1.07
11.26
0.34
0.41
11.73
-0.13
-6.37
-0.05
2.11
0.29
0.01

> <PUBCHEM_SHAPE_SELFOVERLAP>
1168.339

> <PUBCHEM_SHAPE_VOLUME>
289.8

> <PUBCHEM_COORDINATE_TYPE>
2
5
10

$$$$
