17758239
  -OEChem-10052120443D

 51 54  0     0  0  0  0  0  0999 V2000
    1.3161    5.1583   -1.8337 Cl  0  0  0  0  0  0  0  0  0  0  0  0
    1.8474   -3.6683   -2.6290 Cl  0  0  0  0  0  0  0  0  0  0  0  0
    1.2373   -5.5564   -0.4264 F   0  0  0  0  0  0  0  0  0  0  0  0
   -2.1649    1.9695    0.1095 N   0  0  0  0  0  0  0  0  0  0  0  0
   -4.8524    1.1688    1.8835 N   0  0  0  0  0  0  0  0  0  0  0  0
   -6.3015    0.1887    0.5156 N   0  0  0  0  0  0  0  0  0  0  0  0
    2.2227   -0.3879    1.2861 N   0  0  0  0  0  0  0  0  0  0  0  0
    3.2178    3.1440   -0.7595 N   0  0  0  0  0  0  0  0  0  0  0  0
    5.8224   -0.4061    1.1602 N   0  0  0  0  0  0  0  0  0  0  0  0
   -4.1098    0.6530    0.8590 C   0  0  0  0  0  0  0  0  0  0  0  0
   -2.6130    0.7954    0.7937 C   0  0  0  0  0  0  0  0  0  0  0  0
   -5.0261    0.0527    0.0277 C   0  0  0  0  0  0  0  0  0  0  0  0
   -4.7864   -0.6630   -1.2353 C   0  0  0  0  0  0  0  0  0  0  0  0
   -0.8024    2.2581   -0.1055 C   0  0  0  0  0  0  0  0  0  0  0  0
    1.5391    1.6685    0.1419 C   0  0  0  0  0  0  0  0  0  0  0  0
   -4.5411   -2.1728   -1.0427 C   0  0  0  0  0  0  0  0  0  0  0  0
    0.1792    1.3848    0.3540 C   0  0  0  0  0  0  0  0  0  0  0  0
    1.9241    2.8421   -0.5395 C   0  0  0  0  0  0  0  0  0  0  0  0
    2.5478    0.8070    0.5938 C   0  0  0  0  0  0  0  0  0  0  0  0
   -0.4304    3.4157   -0.7776 C   0  0  0  0  0  0  0  0  0  0  0  0
    0.9217    3.6975   -0.9884 C   0  0  0  0  0  0  0  0  0  0  0  0
   -6.1618    0.8651    1.6341 C   0  0  0  0  0  0  0  0  0  0  0  0
    3.8816    1.1154    0.3686 C   0  0  0  0  0  0  0  0  0  0  0  0
   -4.3332   -2.9005   -2.3614 C   0  0  0  0  0  0  0  0  0  0  0  0
    4.1606    2.2860   -0.3070 C   0  0  0  0  0  0  0  0  0  0  0  0
    1.9734   -1.6969    0.8477 C   0  0  0  0  0  0  0  0  0  0  0  0
    2.0271   -1.9992   -0.5130 C   0  0  0  0  0  0  0  0  0  0  0  0
    1.6716   -2.6962    1.7728 C   0  0  0  0  0  0  0  0  0  0  0  0
    4.9528    0.2756    0.8056 C   0  0  0  0  0  0  0  0  0  0  0  0
    1.7793   -3.3011   -0.9486 C   0  0  0  0  0  0  0  0  0  0  0  0
    1.4234   -3.9979    1.3372 C   0  0  0  0  0  0  0  0  0  0  0  0
    1.4775   -4.3004   -0.0234 C   0  0  0  0  0  0  0  0  0  0  0  0
   -2.2279    0.7885    1.8219 H   0  0  0  0  0  0  0  0  0  0  0  0
   -2.2245   -0.1032    0.2970 H   0  0  0  0  0  0  0  0  0  0  0  0
   -5.6507   -0.5228   -1.8968 H   0  0  0  0  0  0  0  0  0  0  0  0
   -3.9287   -0.2212   -1.7578 H   0  0  0  0  0  0  0  0  0  0  0  0
   -2.8439    2.6382   -0.2373 H   0  0  0  0  0  0  0  0  0  0  0  0
   -3.6618   -2.3259   -0.4050 H   0  0  0  0  0  0  0  0  0  0  0  0
   -5.3934   -2.6204   -0.5167 H   0  0  0  0  0  0  0  0  0  0  0  0
   -0.1006    0.4812    0.8867 H   0  0  0  0  0  0  0  0  0  0  0  0
   -4.5007    1.6823    2.6807 H   0  0  0  0  0  0  0  0  0  0  0  0
   -1.1945    4.1011   -1.1387 H   0  0  0  0  0  0  0  0  0  0  0  0
   -6.9577    1.1640    2.3012 H   0  0  0  0  0  0  0  0  0  0  0  0
   -4.1622   -3.9668   -2.1840 H   0  0  0  0  0  0  0  0  0  0  0  0
   -3.4655   -2.5004   -2.8954 H   0  0  0  0  0  0  0  0  0  0  0  0
   -5.2114   -2.7988   -3.0067 H   0  0  0  0  0  0  0  0  0  0  0  0
    2.1545   -0.2529    2.2907 H   0  0  0  0  0  0  0  0  0  0  0  0
    5.1810    2.5924   -0.5194 H   0  0  0  0  0  0  0  0  0  0  0  0
    2.2607   -1.2292   -1.2445 H   0  0  0  0  0  0  0  0  0  0  0  0
    1.6261   -2.4746    2.8360 H   0  0  0  0  0  0  0  0  0  0  0  0
    1.1884   -4.7761    2.0572 H   0  0  0  0  0  0  0  0  0  0  0  0
  1 21  1  0  0  0  0
  2 30  1  0  0  0  0
  3 32  1  0  0  0  0
  4 11  1  0  0  0  0
  4 14  1  0  0  0  0
  4 37  1  0  0  0  0
  5 10  1  0  0  0  0
  5 22  1  0  0  0  0
  5 41  1  0  0  0  0
  6 12  1  0  0  0  0
  6 22  2  0  0  0  0
  7 19  1  0  0  0  0
  7 26  1  0  0  0  0
  7 47  1  0  0  0  0
  8 18  2  0  0  0  0
  8 25  1  0  0  0  0
  9 29  3  0  0  0  0
 10 11  1  0  0  0  0
 10 12  2  0  0  0  0
 11 33  1  0  0  0  0
 11 34  1  0  0  0  0
 12 13  1  0  0  0  0
 13 16  1  0  0  0  0
 13 35  1  0  0  0  0
 13 36  1  0  0  0  0
 14 17  2  0  0  0  0
 14 20  1  0  0  0  0
 15 17  1  0  0  0  0
 15 18  1  0  0  0  0
 15 19  2  0  0  0  0
 16 24  1  0  0  0  0
 16 38  1  0  0  0  0
 16 39  1  0  0  0  0
 17 40  1  0  0  0  0
 18 21  1  0  0  0  0
 19 23  1  0  0  0  0
 20 21  2  0  0  0  0
 20 42  1  0  0  0  0
 22 43  1  0  0  0  0
 23 25  2  0  0  0  0
 23 29  1  0  0  0  0
 24 44  1  0  0  0  0
 24 45  1  0  0  0  0
 24 46  1  0  0  0  0
 25 48  1  0  0  0  0
 26 27  2  0  0  0  0
 26 28  1  0  0  0  0
 27 30  1  0  0  0  0
 27 49  1  0  0  0  0
 28 31  2  0  0  0  0
 28 50  1  0  0  0  0
 30 32  2  0  0  0  0
 31 32  1  0  0  0  0
 31 51  1  0  0  0  0
M  END
> <PUBCHEM_COMPOUND_CID>
17758239

> <PUBCHEM_CONFORMER_RMSD>
1.2

> <PUBCHEM_CONFORMER_DIVERSEORDER>
1
81
26
31
98
82
63
108
96
94
64
80
10
23
45
123
95
90
9
79
56
103
127
76
119
74
48
91
50
40
68
97
67
75
8
14
54
47
51
16
124
33
118
126
6
111
106
57
69
65
58
93
83
11
105
87
77
115
28
24
114
53
5
62
41
89
116
78
60
43
21
110
29
17
112
20
15
120
99
18
42
125
104
2
86
100
66
35
52
30
32
55
101
72
4
73
46
36
61
27
39
37
49
84
121
25
38
85
102
117
19
59
12
70
107
92
7
113
44
34
109
3
71
22
13
122
88
128

> <PUBCHEM_MMFF94_PARTIAL_CHARGES>
39
1 -0.18
10 -0.33
11 0.55
12 0.05
13 0.18
14 0.1
17 -0.15
18 0.31
19 0.1
2 -0.18
20 -0.15
21 0.18
22 0.04
23 0.07
25 0.16
26 0.1
27 -0.15
28 -0.15
29 0.48
3 -0.19
30 0.18
31 -0.15
32 0.19
37 0.4
4 -0.87
40 0.15
41 0.27
42 0.15
43 0.15
47 0.4
48 0.15
49 0.15
5 0.03
50 0.15
51 0.15
6 -0.57
7 -0.6
8 -0.62
9 -0.56

> <PUBCHEM_EFFECTIVE_ROTOR_COUNT>
7

> <PUBCHEM_PHARMACOPHORE_FEATURES>
13
1 24 hydrophobe
1 4 cation
1 4 donor
1 5 donor
1 7 cation
1 7 donor
1 8 acceptor
1 9 acceptor
3 5 6 22 cation
5 5 6 10 12 22 rings
6 14 15 17 18 20 21 rings
6 26 27 28 30 31 32 rings
6 8 15 18 19 23 25 rings

> <PUBCHEM_HEAVY_ATOM_COUNT>
32

> <PUBCHEM_ATOM_DEF_STEREO_COUNT>
0

> <PUBCHEM_ATOM_UDEF_STEREO_COUNT>
0

> <PUBCHEM_BOND_DEF_STEREO_COUNT>
0

> <PUBCHEM_BOND_UDEF_STEREO_COUNT>
0

> <PUBCHEM_ISOTOPIC_ATOM_COUNT>
0

> <PUBCHEM_COMPONENT_COUNT>
1

> <PUBCHEM_CACTVS_TAUTO_COUNT>
6

> <PUBCHEM_CONFORMER_ID>
010EF81F00000001

> <PUBCHEM_MMFF94_ENERGY>
92.2768

> <PUBCHEM_FEATURE_SELFOVERLAP>
66.002

> <PUBCHEM_SHAPE_FINGERPRINT>
11421498 54 18060144193573279976
11513181 2 17346598556596809935
12107183 9 17694237569148531073
12788726 201 17041195212766463809
1361 2 18336266841915806256
14863182 85 18335432257198867412
15250474 111 18271520996682665461
15297060 5 17418097641524583611
15351339 4 17112666737348861127
15484559 13 18262810665008586284
15664445 248 18262821578594786772
17138139 8 17553188210063269743
19301679 30 18263936462511817721
20028762 73 18342173384521393366
20511986 3 18201992262151406449
20775530 9 18052816953490640467
21315764 371 17845367915680342825
21344244 181 18196680500223967044
255183 313 18197187379410695416
3737641 26 18197501727122934248
394071 54 18337685122391081609
463206 1 18339080501183043777
50080093 196 18410282628020332995
66674814 147 18193542587746910919

> <PUBCHEM_SHAPE_MULTIPOLES>
625.12
11.6
7.2
1.89
17.12
3.63
-0.64
-0.82
2.98
-5.85
-3.9
0.91
1.16
-2.81

> <PUBCHEM_SHAPE_SELFOVERLAP>
1347.316

> <PUBCHEM_SHAPE_VOLUME>
346.9

> <PUBCHEM_COORDINATE_TYPE>
2
5
10

$$$$
