206042
  -OEChem-10062121563D

 41 43  0     0  0  0  0  0  0999 V2000
    0.5287   -1.2511   -1.1773 O   0  0  0  0  0  0  0  0  0  0  0  0
   -6.0762   -2.3725   -0.2843 O   0  0  0  0  0  0  0  0  0  0  0  0
   -6.4773   -0.5048    0.9406 O   0  0  0  0  0  0  0  0  0  0  0  0
   -0.6750    1.7883   -0.8296 N   0  0  0  0  0  0  0  0  0  0  0  0
    2.8549   -1.6394   -1.0423 N   0  0  0  0  0  0  0  0  0  0  0  0
   -2.4492    0.9083    0.1753 C   0  0  0  0  0  0  0  0  0  0  0  0
   -1.2906    0.5483    0.9070 C   0  0  0  0  0  0  0  0  0  0  0  0
   -0.2774    1.1060    0.2518 C   0  0  0  0  0  0  0  0  0  0  0  0
   -2.0392    1.6750   -0.8931 C   0  0  0  0  0  0  0  0  0  0  0  0
   -3.8419    0.5340    0.4966 C   0  0  0  0  0  0  0  0  0  0  0  0
    1.1763    1.1086    0.4987 C   0  0  0  0  0  0  0  0  0  0  0  0
    2.0479    0.2053    0.0459 C   0  0  0  0  0  0  0  0  0  0  0  0
   -4.3125   -0.7876   -0.1438 C   0  0  0  0  0  0  0  0  0  0  0  0
   -1.2515   -0.2744    2.1340 C   0  0  0  0  0  0  0  0  0  0  0  0
    3.4910    0.1509    0.2532 C   0  0  0  0  0  0  0  0  0  0  0  0
   -2.8069    2.3177   -1.9767 C   0  0  0  0  0  0  0  0  0  0  0  0
    3.9304   -0.9879   -0.4283 C   0  0  0  0  0  0  0  0  0  0  0  0
    1.6512   -0.9695   -0.8007 C   0  0  0  0  0  0  0  0  0  0  0  0
    4.3850    0.9527    0.9372 C   0  0  0  0  0  0  0  0  0  0  0  0
    5.2581   -1.3670   -0.4553 C   0  0  0  0  0  0  0  0  0  0  0  0
   -5.7284   -1.1657    0.2350 C   0  0  0  0  0  0  0  0  0  0  0  0
    5.7353    0.5868    0.9230 C   0  0  0  0  0  0  0  0  0  0  0  0
    6.1674   -0.5619    0.2334 C   0  0  0  0  0  0  0  0  0  0  0  0
   -4.5219    1.3388    0.1869 H   0  0  0  0  0  0  0  0  0  0  0  0
   -3.9638    0.4649    1.5855 H   0  0  0  0  0  0  0  0  0  0  0  0
   -0.0944    2.2965   -1.4850 H   0  0  0  0  0  0  0  0  0  0  0  0
    1.5318    1.9357    1.1095 H   0  0  0  0  0  0  0  0  0  0  0  0
   -4.2642   -0.7060   -1.2358 H   0  0  0  0  0  0  0  0  0  0  0  0
   -3.6499   -1.6020    0.1719 H   0  0  0  0  0  0  0  0  0  0  0  0
   -1.7510   -1.2350    1.9714 H   0  0  0  0  0  0  0  0  0  0  0  0
   -0.2266   -0.4868    2.4545 H   0  0  0  0  0  0  0  0  0  0  0  0
   -1.7575    0.2413    2.9568 H   0  0  0  0  0  0  0  0  0  0  0  0
   -3.4029    3.1466   -1.5817 H   0  0  0  0  0  0  0  0  0  0  0  0
   -2.1531    2.7158   -2.7597 H   0  0  0  0  0  0  0  0  0  0  0  0
   -3.4876    1.6001   -2.4462 H   0  0  0  0  0  0  0  0  0  0  0  0
    2.9521   -2.4872   -1.5885 H   0  0  0  0  0  0  0  0  0  0  0  0
    4.0637    1.8397    1.4719 H   0  0  0  0  0  0  0  0  0  0  0  0
    5.5895   -2.2518   -0.9865 H   0  0  0  0  0  0  0  0  0  0  0  0
    6.4627    1.1973    1.4518 H   0  0  0  0  0  0  0  0  0  0  0  0
    7.2223   -0.8233    0.2386 H   0  0  0  0  0  0  0  0  0  0  0  0
   -6.9881   -2.6303   -0.0306 H   0  0  0  0  0  0  0  0  0  0  0  0
  1 18  2  0  0  0  0
  2 21  1  0  0  0  0
  2 41  1  0  0  0  0
  3 21  2  0  0  0  0
  4  8  1  0  0  0  0
  4  9  1  0  0  0  0
  4 26  1  0  0  0  0
  5 17  1  0  0  0  0
  5 18  1  0  0  0  0
  5 36  1  0  0  0  0
  6  7  1  0  0  0  0
  6  9  2  0  0  0  0
  6 10  1  0  0  0  0
  7  8  2  0  0  0  0
  7 14  1  0  0  0  0
  8 11  1  0  0  0  0
  9 16  1  0  0  0  0
 10 13  1  0  0  0  0
 10 24  1  0  0  0  0
 10 25  1  0  0  0  0
 11 12  2  3  0  0  0
 11 27  1  0  0  0  0
 12 15  1  0  0  0  0
 12 18  1  0  0  0  0
 13 21  1  0  0  0  0
 13 28  1  0  0  0  0
 13 29  1  0  0  0  0
 14 30  1  0  0  0  0
 14 31  1  0  0  0  0
 14 32  1  0  0  0  0
 15 17  1  0  0  0  0
 15 19  2  0  0  0  0
 16 33  1  0  0  0  0
 16 34  1  0  0  0  0
 16 35  1  0  0  0  0
 17 20  2  0  0  0  0
 19 22  1  0  0  0  0
 19 37  1  0  0  0  0
 20 23  1  0  0  0  0
 20 38  1  0  0  0  0
 22 23  2  0  0  0  0
 22 39  1  0  0  0  0
 23 40  1  0  0  0  0
M  END
> <PUBCHEM_COMPOUND_CID>
206042

> <PUBCHEM_CONFORMER_RMSD>
0.8

> <PUBCHEM_CONFORMER_DIVERSEORDER>
1
13
15
6
14
12
10
16
3
8
11
7
2
5
9
4

> <PUBCHEM_MMFF94_PARTIAL_CHARGES>
31
1 -0.57
10 0.18
11 -0.11
12 -0.01
13 0.06
14 0.18
15 0.03
16 0.18
17 0.12
18 0.62
19 -0.15
2 -0.65
20 -0.15
21 0.66
22 -0.15
23 -0.15
26 0.27
27 0.15
3 -0.57
36 0.37
37 0.15
38 0.15
39 0.15
4 0.03
40 0.15
41 0.5
5 -0.55
6 -0.18
7 -0.18
8 -0.2
9 -0.33

> <PUBCHEM_EFFECTIVE_ROTOR_COUNT>
4.2

> <PUBCHEM_PHARMACOPHORE_FEATURES>
10
1 1 acceptor
1 2 acceptor
1 3 acceptor
1 4 cation
1 4 donor
1 5 donor
3 2 3 21 anion
5 4 6 7 8 9 rings
5 5 12 15 17 18 rings
6 15 17 19 20 22 23 rings

> <PUBCHEM_HEAVY_ATOM_COUNT>
23

> <PUBCHEM_ATOM_DEF_STEREO_COUNT>
0

> <PUBCHEM_ATOM_UDEF_STEREO_COUNT>
0

> <PUBCHEM_BOND_DEF_STEREO_COUNT>
0

> <PUBCHEM_BOND_UDEF_STEREO_COUNT>
1

> <PUBCHEM_ISOTOPIC_ATOM_COUNT>
0

> <PUBCHEM_COMPONENT_COUNT>
1

> <PUBCHEM_CACTVS_TAUTO_COUNT>
2

> <PUBCHEM_CONFORMER_ID>
000324DA00000001

> <PUBCHEM_MMFF94_ENERGY>
58.8748

> <PUBCHEM_FEATURE_SELFOVERLAP>
50.893

> <PUBCHEM_SHAPE_FINGERPRINT>
10 15 18339352059861029200
10366900 7 17822300071920248296
11963148 33 18408316709545880738
12166972 35 18343024398121638464
12236239 1 16271921589082276256
12403259 415 18343292657383719872
12596602 18 16630533942332582795
12616971 3 16271918320791564120
13402501 40 18342177782230755439
13583140 156 18187079521677029304
13782708 43 18336266722305866934
14294032 229 16589700151131611901
14341114 328 16343707642281309019
15048467 5 10807934873039859538
15183329 4 12973877109430717071
15537594 2 15626220199909874286
17349148 13 16950570951944230244
17834072 8 11746934287187107554
17980427 23 16805896095143445508
192875 21 16805332092917761557
19489759 90 17531246119558825628
200 152 17917710179997505944
21033648 29 18268975537049686088
21267235 1 17917717864706822222
21623969 137 17918276445676365782
22079108 93 17274818086664453978
23402539 116 17530964657488148597
23557571 272 18260549978638767461
23559900 14 17023475260399377924
23622692 88 14117796921083825809
25147074 1 14476094844068500153
29717793 49 15430034327845461578
3009799 131 15791727529270973013
3633792 109 15140947431681921330
4325135 7 18411985792895090668
4340502 62 17632580473970355410
5104073 3 17988077769277334762
56616090 284 17313109678776878889
5718773 13 18335416816939586306
59682541 35 18130220579516762066

> <PUBCHEM_SHAPE_MULTIPOLES>
445.76
14.63
1.95
1.36
2.45
0.12
-0.08
-7.03
-1.69
1.89
0.85
0.43
0.25
1.56

> <PUBCHEM_SHAPE_SELFOVERLAP>
974.81

> <PUBCHEM_SHAPE_VOLUME>
244.7

> <PUBCHEM_COORDINATE_TYPE>
2
5
10

$$$$
