49830697
  -OEChem-10052120443D

 40 42  0     0  0  0  0  0  0999 V2000
    7.2135    0.1471   -0.0017 F   0  0  0  0  0  0  0  0  0  0  0  0
    5.8079    1.4036   -1.0847 F   0  0  0  0  0  0  0  0  0  0  0  0
    5.8098    1.4036    1.0841 F   0  0  0  0  0  0  0  0  0  0  0  0
    1.3534    1.4186    0.0007 O   0  0  0  0  0  0  0  0  0  0  0  0
   -0.6497    0.2053    0.0002 N   0  0  0  0  0  0  0  0  0  0  0  0
   -3.4947    3.2701    0.0000 N   0  0  0  0  0  0  0  0  0  0  0  0
    1.3624   -0.9200    0.0004 N   0  0  0  0  0  0  0  0  0  0  0  0
    3.6297   -0.2030    0.0008 N   0  0  0  0  0  0  0  0  0  0  0  0
   -2.9956    0.9125   -0.0001 C   0  0  0  0  0  0  0  0  0  0  0  0
   -1.6258    1.2086    0.0002 C   0  0  0  0  0  0  0  0  0  0  0  0
   -3.9077    1.9886   -0.0002 C   0  0  0  0  0  0  0  0  0  0  0  0
   -3.4619   -0.4131    0.0000 C   0  0  0  0  0  0  0  0  0  0  0  0
   -1.1972    2.5282    0.0003 C   0  0  0  0  0  0  0  0  0  0  0  0
   -5.2683    1.6937   -0.0004 C   0  0  0  0  0  0  0  0  0  0  0  0
   -4.8281   -0.6790   -0.0001 C   0  0  0  0  0  0  0  0  0  0  0  0
   -5.7322    0.3760   -0.0004 C   0  0  0  0  0  0  0  0  0  0  0  0
   -2.1639    3.5131    0.0002 C   0  0  0  0  0  0  0  0  0  0  0  0
    0.7566    0.3466    0.0005 C   0  0  0  0  0  0  0  0  0  0  0  0
    2.7442   -1.2245    0.0007 C   0  0  0  0  0  0  0  0  0  0  0  0
    4.9383   -0.5427    0.0005 C   0  0  0  0  0  0  0  0  0  0  0  0
    3.1035   -2.5627    0.0001 C   0  0  0  0  0  0  0  0  0  0  0  0
    5.4004   -1.8489    0.0002 C   0  0  0  0  0  0  0  0  0  0  0  0
    4.4591   -2.8724   -0.0001 C   0  0  0  0  0  0  0  0  0  0  0  0
    5.9200    0.5813   -0.0005 C   0  0  0  0  0  0  0  0  0  0  0  0
   -5.2992   -2.0278   -0.0001 C   0  0  0  0  0  0  0  0  0  0  0  0
   -5.6955   -3.1615   -0.0003 C   0  0  0  0  0  0  0  0  0  0  0  0
   -6.1791   -4.5414   -0.0001 C   0  0  0  0  0  0  0  0  0  0  0  0
   -2.7883   -1.2651    0.0001 H   0  0  0  0  0  0  0  0  0  0  0  0
   -0.1770    2.8735    0.0005 H   0  0  0  0  0  0  0  0  0  0  0  0
   -5.9968    2.5025   -0.0006 H   0  0  0  0  0  0  0  0  0  0  0  0
   -0.9710   -0.7551    0.0000 H   0  0  0  0  0  0  0  0  0  0  0  0
   -6.8043    0.1938   -0.0005 H   0  0  0  0  0  0  0  0  0  0  0  0
   -1.8900    4.5632    0.0003 H   0  0  0  0  0  0  0  0  0  0  0  0
    0.7381   -1.7227    0.0002 H   0  0  0  0  0  0  0  0  0  0  0  0
    2.3649   -3.3576   -0.0002 H   0  0  0  0  0  0  0  0  0  0  0  0
    6.4577   -2.0897   -0.0002 H   0  0  0  0  0  0  0  0  0  0  0  0
    4.7813   -3.9093   -0.0006 H   0  0  0  0  0  0  0  0  0  0  0  0
   -5.3852   -5.2321   -0.2997 H   0  0  0  0  0  0  0  0  0  0  0  0
   -6.5243   -4.8327    0.9965 H   0  0  0  0  0  0  0  0  0  0  0  0
   -7.0141   -4.6613   -0.6970 H   0  0  0  0  0  0  0  0  0  0  0  0
  1 24  1  0  0  0  0
  2 24  1  0  0  0  0
  3 24  1  0  0  0  0
  4 18  2  0  0  0  0
  5 10  1  0  0  0  0
  5 18  1  0  0  0  0
  5 31  1  0  0  0  0
  6 11  2  0  0  0  0
  6 17  1  0  0  0  0
  7 18  1  0  0  0  0
  7 19  1  0  0  0  0
  7 34  1  0  0  0  0
  8 19  1  0  0  0  0
  8 20  2  0  0  0  0
  9 10  2  0  0  0  0
  9 11  1  0  0  0  0
  9 12  1  0  0  0  0
 10 13  1  0  0  0  0
 11 14  1  0  0  0  0
 12 15  2  0  0  0  0
 12 28  1  0  0  0  0
 13 17  2  0  0  0  0
 13 29  1  0  0  0  0
 14 16  2  0  0  0  0
 14 30  1  0  0  0  0
 15 16  1  0  0  0  0
 15 25  1  0  0  0  0
 16 32  1  0  0  0  0
 17 33  1  0  0  0  0
 19 21  2  0  0  0  0
 20 22  1  0  0  0  0
 20 24  1  0  0  0  0
 21 23  1  0  0  0  0
 21 35  1  0  0  0  0
 22 23  2  0  0  0  0
 22 36  1  0  0  0  0
 23 37  1  0  0  0  0
 25 26  3  0  0  0  0
 26 27  1  0  0  0  0
 27 38  1  0  0  0  0
 27 39  1  0  0  0  0
 27 40  1  0  0  0  0
M  END
> <PUBCHEM_COMPOUND_CID>
49830697

> <PUBCHEM_CONFORMER_RMSD>
0.8

> <PUBCHEM_CONFORMER_DIVERSEORDER>
1
32
31
33
11
20
7
12
8
34
19
4
25
26
27
22
5
21
16
15
6
17
18
3
28
2
24
14
30
13
10
29
9
23

> <PUBCHEM_MMFF94_PARTIAL_CHARGES>
36
1 -0.34
10 0.12
11 0.31
12 -0.15
13 -0.15
14 -0.15
15 0.07
16 -0.15
17 0.16
18 0.69
19 0.43
2 -0.34
20 0.17
21 -0.15
22 -0.15
23 -0.15
24 1.16
25 -0.07
26 -0.2
27 0.2
28 0.15
29 0.15
3 -0.34
30 0.15
31 0.37
32 0.15
33 0.15
34 0.37
35 0.15
36 0.15
37 0.15
4 -0.57
5 -0.55
6 -0.62
7 -0.55
8 -0.62

> <PUBCHEM_EFFECTIVE_ROTOR_COUNT>
5

> <PUBCHEM_PHARMACOPHORE_FEATURES>
9
1 27 hydrophobe
1 4 acceptor
1 5 donor
1 6 acceptor
1 7 donor
1 8 acceptor
6 6 9 10 11 13 17 rings
6 8 19 20 21 22 23 rings
6 9 11 12 14 15 16 rings

> <PUBCHEM_HEAVY_ATOM_COUNT>
27

> <PUBCHEM_ATOM_DEF_STEREO_COUNT>
0

> <PUBCHEM_ATOM_UDEF_STEREO_COUNT>
0

> <PUBCHEM_BOND_DEF_STEREO_COUNT>
0

> <PUBCHEM_BOND_UDEF_STEREO_COUNT>
0

> <PUBCHEM_ISOTOPIC_ATOM_COUNT>
0

> <PUBCHEM_COMPONENT_COUNT>
1

> <PUBCHEM_CACTVS_TAUTO_COUNT>
11

> <PUBCHEM_CONFORMER_ID>
02F85B2900000001

> <PUBCHEM_MMFF94_ENERGY>
70.6277

> <PUBCHEM_FEATURE_SELFOVERLAP>
45.756

> <PUBCHEM_SHAPE_FINGERPRINT>
10391435 84 18337379535383633019
10411042 1 18266460005106442371
10595046 47 18408324354702419284
10835480 77 18337946771134719261
117089 54 18192720166657800019
11963148 33 18337101350204989994
12107183 9 17256243748768040032
1361 4 18411700963407198462
13631057 29 18411698816107523827
14168556 18 18268424818898794968
14251732 16 18412262848228926378
14429380 30 18264490762227121843
14461889 52 18412256264487602714
14659021 117 18261390087938916819
15196674 1 18338798892972578432
15250474 111 18116705214779050939
15510800 12 17824546511974165859
15803439 3 17464502371651540285
16110190 28 18342181029652734009
17844677 252 18267872675025217192
18608769 82 18412542132783008816
23559900 14 18411971465085261945
239999 70 18127975205349120014
3246875 12 18340762750005803408
335352 9 18410851063511446741
34797466 226 17775006752547366684
394071 54 15553863578118330330
4073 2 18187934958265368634
4214541 1 18194683665894201569
4325135 7 18409168788307154972
4461854 278 17915471699300666063
484989 97 18272376361016449658
497634 4 18337111142418779549
5104073 3 18269833117084324792
550186 72 18411135835878887165
6431902 208 18410008875452686903
67856867 119 18261680353975697708
7970288 3 18267020747178213431

> <PUBCHEM_SHAPE_MULTIPOLES>
508.03
18.87
4.49
0.65
14.87
2.46
0
9.43
0
-7.54
0
0.28
-0.07
0

> <PUBCHEM_SHAPE_SELFOVERLAP>
1109.536

> <PUBCHEM_SHAPE_VOLUME>
274.3

> <PUBCHEM_COORDINATE_TYPE>
2
5
10

$$$$
