447873
  -OEChem-10062122013D

 69 73  0     0  0  0  0  0  0999 V2000
   -2.5046   -3.8626   -2.1800 Cl  0  0  0  0  0  0  0  0  0  0  0  0
   -2.3278   -5.9995    0.2444 Cl  0  0  0  0  0  0  0  0  0  0  0  0
    1.9185    0.8411    0.5316 N   0  0  0  0  0  0  0  0  0  0  0  0
    7.0214    0.3378   -1.2139 N   0  0  0  0  0  0  0  0  0  0  0  0
   -3.4259    2.0405    0.5305 N   0  0  0  0  0  0  0  0  0  0  0  0
    2.3913   -1.1372   -0.3600 N   0  0  0  0  0  0  0  0  0  0  0  0
   -1.3054    1.0463    0.6776 N   0  0  0  0  0  0  0  0  0  0  0  0
   -2.6425    1.4074    2.6496 N   0  0  0  0  0  0  0  0  0  0  0  0
    4.1798    0.6339   -0.5829 C   0  0  0  0  0  0  0  0  0  0  0  0
   -3.3321    2.1847   -0.9099 C   0  0  0  0  0  0  0  0  0  0  0  0
    4.6678    0.0066   -1.8984 C   0  0  0  0  0  0  0  0  0  0  0  0
    5.2511    0.4775    0.5079 C   0  0  0  0  0  0  0  0  0  0  0  0
   -4.2919    3.2767   -1.3929 C   0  0  0  0  0  0  0  0  0  0  0  0
   -3.6175    0.8432   -1.5926 C   0  0  0  0  0  0  0  0  0  0  0  0
    2.8312    0.0833   -0.1481 C   0  0  0  0  0  0  0  0  0  0  0  0
   -5.7593    2.8579   -1.3009 C   0  0  0  0  0  0  0  0  0  0  0  0
   -5.0873    0.4330   -1.4999 C   0  0  0  0  0  0  0  0  0  0  0  0
   -6.0126    1.5323   -2.0118 C   0  0  0  0  0  0  0  0  0  0  0  0
    6.0458    0.5447   -2.2846 C   0  0  0  0  0  0  0  0  0  0  0  0
    6.6058    0.9963    0.0247 C   0  0  0  0  0  0  0  0  0  0  0  0
    0.8219    0.0557    0.7710 C   0  0  0  0  0  0  0  0  0  0  0  0
    2.0858    2.2229    0.9245 C   0  0  0  0  0  0  0  0  0  0  0  0
    1.1423   -1.1621    0.2081 C   0  0  0  0  0  0  0  0  0  0  0  0
   -0.3533    0.5073    1.4672 C   0  0  0  0  0  0  0  0  0  0  0  0
   -2.4287    1.4817    1.3085 C   0  0  0  0  0  0  0  0  0  0  0  0
    1.5851    3.1895   -0.1465 C   0  0  0  0  0  0  0  0  0  0  0  0
    0.3012   -2.3212    0.2022 C   0  0  0  0  0  0  0  0  0  0  0  0
   -0.4713    0.3858    2.8367 C   0  0  0  0  0  0  0  0  0  0  0  0
    1.7793    4.6356    0.2786 C   0  0  0  0  0  0  0  0  0  0  0  0
   -1.6494    0.8573    3.3787 C   0  0  0  0  0  0  0  0  0  0  0  0
   -0.5953   -2.5328   -0.8479 C   0  0  0  0  0  0  0  0  0  0  0  0
    0.3742   -3.2451    1.2473 C   0  0  0  0  0  0  0  0  0  0  0  0
   -1.4141   -3.6620   -0.8531 C   0  0  0  0  0  0  0  0  0  0  0  0
   -0.4449   -4.3741    1.2422 C   0  0  0  0  0  0  0  0  0  0  0  0
   -1.3390   -4.5826    0.1921 C   0  0  0  0  0  0  0  0  0  0  0  0
    4.0672    1.7061   -0.7884 H   0  0  0  0  0  0  0  0  0  0  0  0
   -2.3181    2.5119   -1.1744 H   0  0  0  0  0  0  0  0  0  0  0  0
    3.9533    0.2163   -2.7040 H   0  0  0  0  0  0  0  0  0  0  0  0
    4.7191   -1.0863   -1.8018 H   0  0  0  0  0  0  0  0  0  0  0  0
    5.3427   -0.5802    0.7901 H   0  0  0  0  0  0  0  0  0  0  0  0
    4.9612    1.0142    1.4184 H   0  0  0  0  0  0  0  0  0  0  0  0
   -4.1415    4.1984   -0.8176 H   0  0  0  0  0  0  0  0  0  0  0  0
   -4.0605    3.5153   -2.4390 H   0  0  0  0  0  0  0  0  0  0  0  0
   -3.3469    0.9264   -2.6533 H   0  0  0  0  0  0  0  0  0  0  0  0
   -2.9956    0.0415   -1.1785 H   0  0  0  0  0  0  0  0  0  0  0  0
   -6.3884    3.6370   -1.7470 H   0  0  0  0  0  0  0  0  0  0  0  0
   -6.0630    2.7746   -0.2508 H   0  0  0  0  0  0  0  0  0  0  0  0
   -5.3406    0.1954   -0.4596 H   0  0  0  0  0  0  0  0  0  0  0  0
   -5.2487   -0.4821   -2.0812 H   0  0  0  0  0  0  0  0  0  0  0  0
   -7.0567    1.2313   -1.8703 H   0  0  0  0  0  0  0  0  0  0  0  0
   -5.8615    1.6625   -3.0905 H   0  0  0  0  0  0  0  0  0  0  0  0
    6.3965    0.0332   -3.1877 H   0  0  0  0  0  0  0  0  0  0  0  0
    5.9840    1.6112   -2.5322 H   0  0  0  0  0  0  0  0  0  0  0  0
    6.5679    2.0823   -0.1240 H   0  0  0  0  0  0  0  0  0  0  0  0
    7.3623    0.8115    0.7952 H   0  0  0  0  0  0  0  0  0  0  0  0
    7.1142   -0.6634   -1.0407 H   0  0  0  0  0  0  0  0  0  0  0  0
   -4.2711    2.3271    1.0099 H   0  0  0  0  0  0  0  0  0  0  0  0
    1.5471    2.3812    1.8653 H   0  0  0  0  0  0  0  0  0  0  0  0
    3.1400    2.4030    1.1532 H   0  0  0  0  0  0  0  0  0  0  0  0
    0.5217    3.0160   -0.3476 H   0  0  0  0  0  0  0  0  0  0  0  0
    2.1117    3.0193   -1.0926 H   0  0  0  0  0  0  0  0  0  0  0  0
    0.3015   -0.0494    3.4581 H   0  0  0  0  0  0  0  0  0  0  0  0
    2.8381    4.8553    0.4489 H   0  0  0  0  0  0  0  0  0  0  0  0
    1.4128    5.3121   -0.4998 H   0  0  0  0  0  0  0  0  0  0  0  0
    1.2301    4.8501    1.2010 H   0  0  0  0  0  0  0  0  0  0  0  0
   -1.8330    0.8043    4.4464 H   0  0  0  0  0  0  0  0  0  0  0  0
   -0.6545   -1.8127   -1.6624 H   0  0  0  0  0  0  0  0  0  0  0  0
    1.0658   -3.0975    2.0737 H   0  0  0  0  0  0  0  0  0  0  0  0
   -0.3734   -5.0811    2.0650 H   0  0  0  0  0  0  0  0  0  0  0  0
  1 33  1  0  0  0  0
  2 35  1  0  0  0  0
  3 15  1  0  0  0  0
  3 21  1  0  0  0  0
  3 22  1  0  0  0  0
  4 19  1  0  0  0  0
  4 20  1  0  0  0  0
  4 56  1  0  0  0  0
  5 10  1  0  0  0  0
  5 25  1  0  0  0  0
  5 57  1  0  0  0  0
  6 15  2  0  0  0  0
  6 23  1  0  0  0  0
  7 24  2  0  0  0  0
  7 25  1  0  0  0  0
  8 25  2  0  0  0  0
  8 30  1  0  0  0  0
  9 11  1  0  0  0  0
  9 12  1  0  0  0  0
  9 15  1  0  0  0  0
  9 36  1  0  0  0  0
 10 13  1  0  0  0  0
 10 14  1  0  0  0  0
 10 37  1  0  0  0  0
 11 19  1  0  0  0  0
 11 38  1  0  0  0  0
 11 39  1  0  0  0  0
 12 20  1  0  0  0  0
 12 40  1  0  0  0  0
 12 41  1  0  0  0  0
 13 16  1  0  0  0  0
 13 42  1  0  0  0  0
 13 43  1  0  0  0  0
 14 17  1  0  0  0  0
 14 44  1  0  0  0  0
 14 45  1  0  0  0  0
 16 18  1  0  0  0  0
 16 46  1  0  0  0  0
 16 47  1  0  0  0  0
 17 18  1  0  0  0  0
 17 48  1  0  0  0  0
 17 49  1  0  0  0  0
 18 50  1  0  0  0  0
 18 51  1  0  0  0  0
 19 52  1  0  0  0  0
 19 53  1  0  0  0  0
 20 54  1  0  0  0  0
 20 55  1  0  0  0  0
 21 23  2  0  0  0  0
 21 24  1  0  0  0  0
 22 26  1  0  0  0  0
 22 58  1  0  0  0  0
 22 59  1  0  0  0  0
 23 27  1  0  0  0  0
 24 28  1  0  0  0  0
 26 29  1  0  0  0  0
 26 60  1  0  0  0  0
 26 61  1  0  0  0  0
 27 31  2  0  0  0  0
 27 32  1  0  0  0  0
 28 30  2  0  0  0  0
 28 62  1  0  0  0  0
 29 63  1  0  0  0  0
 29 64  1  0  0  0  0
 29 65  1  0  0  0  0
 30 66  1  0  0  0  0
 31 33  1  0  0  0  0
 31 67  1  0  0  0  0
 32 34  2  0  0  0  0
 32 68  1  0  0  0  0
 33 35  2  0  0  0  0
 34 35  1  0  0  0  0
 34 69  1  0  0  0  0
M  END
> <PUBCHEM_COMPOUND_CID>
447873

> <PUBCHEM_CONFORMER_RMSD>
1

> <PUBCHEM_CONFORMER_DIVERSEORDER>
1
18
36
19
90
46
70
80
96
79
50
38
91
68
17
74
76
81
41
30
21
22
4
32
89
78
63
28
75
39
35
86
69
31
24
84
64
92
94
88
62
15
65
33
77
85
51
87
42
37
49
57
43
67
58
55
13
61
82
16
8
59
14
52
56
66
97
93
83
71
26
2
3
95
20
34
25
44
40
10
47
60
73
29
53
6
7
48
12
54
72
5
23
11
9
45
27

> <PUBCHEM_MMFF94_PARTIAL_CHARGES>
33
1 -0.18
10 0.37
15 0.01
19 0.27
2 -0.18
20 0.27
21 -0.2
22 0.26
23 0.17
24 0.36
25 0.72
27 0.05
28 -0.15
3 0.05
30 0.16
31 -0.15
32 -0.15
33 0.18
34 -0.15
35 0.18
4 -0.9
5 -0.87
56 0.36
57 0.4
6 -0.57
62 0.15
66 0.15
67 0.15
68 0.15
69 0.15
7 -0.62
8 -0.62
9 0.18

> <PUBCHEM_EFFECTIVE_ROTOR_COUNT>
9.4

> <PUBCHEM_PHARMACOPHORE_FEATURES>
12
1 29 hydrophobe
1 4 cation
1 4 donor
1 5 donor
1 7 acceptor
3 3 6 15 cation
4 5 7 8 25 cation
5 3 6 15 21 23 rings
6 10 13 14 16 17 18 rings
6 27 31 32 33 34 35 rings
6 4 9 11 12 19 20 rings
6 7 8 24 25 28 30 rings

> <PUBCHEM_HEAVY_ATOM_COUNT>
35

> <PUBCHEM_ATOM_DEF_STEREO_COUNT>
0

> <PUBCHEM_ATOM_UDEF_STEREO_COUNT>
0

> <PUBCHEM_BOND_DEF_STEREO_COUNT>
0

> <PUBCHEM_BOND_UDEF_STEREO_COUNT>
0

> <PUBCHEM_ISOTOPIC_ATOM_COUNT>
0

> <PUBCHEM_COMPONENT_COUNT>
1

> <PUBCHEM_CACTVS_TAUTO_COUNT>
3

> <PUBCHEM_CONFORMER_ID>
0006D58100000001

> <PUBCHEM_MMFF94_ENERGY>
60.7955

> <PUBCHEM_FEATURE_SELFOVERLAP>
60.897

> <PUBCHEM_SHAPE_FINGERPRINT>
10258939 38 17619616326273832576
10577160 183 18260261920595426426
11991303 11 18335431174545576390
13540713 4 17985261018456667432
13636023 20 17983559832791186469
13911987 19 18336277738638401524
14930077 153 17825121542847008277
15484559 13 18269264660676777271
17138139 8 17844782881395423367
21641784 216 17471026138114608788
23536364 44 18131349756230606071
23576562 1 18115595992747034388
25223398 141 18114186388553147359
3103668 31 18263645246312097239
3493558 16 17467330657979709165
4058900 60 18264490577263180357
4066623 53 17908967048449510735
437795 70 17914881257514232239
4409770 3 18341337794049540651
44802255 64 18115611308584275302
469060 322 17182789203706098265
504843 32 18187939377565358523
5080951 261 18130230462358251298
550186 7 16878803594869556956
563151 97 18197222438338163032
59755656 520 18200610123772575890
6677587 24 17246352679867226511
6691757 9 18272375240093218066
70251023 43 17839198642485544986

> <PUBCHEM_SHAPE_MULTIPOLES>
694.14
12.2
6.78
2.52
12
9.09
-1.16
-10.29
10.18
-8.06
0.33
-1.4
-0.57
0.88

> <PUBCHEM_SHAPE_SELFOVERLAP>
1466.072

> <PUBCHEM_SHAPE_VOLUME>
388.8

> <PUBCHEM_COORDINATE_TYPE>
2
5
10

$$$$
