46945263
  -OEChem-10062121563D

 67 70  0     0  0  0  0  0  0999 V2000
   -0.3307    3.0875   -0.4015 O   0  0  0  0  0  0  0  0  0  0  0  0
    0.2842   -4.9070    1.0721 O   0  0  0  0  0  0  0  0  0  0  0  0
   -2.9194   -2.6208   -2.7637 O   0  0  0  0  0  0  0  0  0  0  0  0
    2.9554    0.3615    0.4039 N   0  0  0  0  0  0  0  0  0  0  0  0
    4.1950    0.7390    0.0473 N   0  0  0  0  0  0  0  0  0  0  0  0
    0.6183    1.1036    0.3935 N   0  0  0  0  0  0  0  0  0  0  0  0
   -1.6579    1.4205    0.5698 N   0  0  0  0  0  0  0  0  0  0  0  0
    0.7500   -3.9963   -1.0088 N   0  0  0  0  0  0  0  0  0  0  0  0
    5.1490    2.7066   -1.0133 C   0  0  0  0  0  0  0  0  0  0  0  0
    4.0017    1.9469   -0.4890 C   0  0  0  0  0  0  0  0  0  0  0  0
    6.5531    2.0079   -0.8919 C   0  0  0  0  0  0  0  0  0  0  0  0
    4.9926    3.0225   -2.5403 C   0  0  0  0  0  0  0  0  0  0  0  0
    5.3239    4.0809   -0.2806 C   0  0  0  0  0  0  0  0  0  0  0  0
    2.6493    2.3377   -0.4747 C   0  0  0  0  0  0  0  0  0  0  0  0
    1.9934    1.2836    0.1128 C   0  0  0  0  0  0  0  0  0  0  0  0
    2.7608   -0.8808    1.0102 C   0  0  0  0  0  0  0  0  0  0  0  0
    1.9362   -1.8301    0.4063 C   0  0  0  0  0  0  0  0  0  0  0  0
    3.3916   -1.1732    2.2195 C   0  0  0  0  0  0  0  0  0  0  0  0
    1.7424   -3.0718    1.0116 C   0  0  0  0  0  0  0  0  0  0  0  0
   -0.4404    1.9874    0.1302 C   0  0  0  0  0  0  0  0  0  0  0  0
    3.1981   -2.4151    2.8247 C   0  0  0  0  0  0  0  0  0  0  0  0
    2.3733   -3.3643    2.2209 C   0  0  0  0  0  0  0  0  0  0  0  0
   -2.9469    1.9631    0.4994 C   0  0  0  0  0  0  0  0  0  0  0  0
   -4.0861    1.1509    0.3781 C   0  0  0  0  0  0  0  0  0  0  0  0
    0.8823   -4.0620    0.3830 C   0  0  0  0  0  0  0  0  0  0  0  0
   -5.3636    1.7561    0.3111 C   0  0  0  0  0  0  0  0  0  0  0  0
   -0.0850   -4.8932   -1.7752 C   0  0  0  0  0  0  0  0  0  0  0  0
   -3.0655    3.3522    0.5537 C   0  0  0  0  0  0  0  0  0  0  0  0
   -1.5058   -4.3701   -1.9398 C   0  0  0  0  0  0  0  0  0  0  0  0
   -3.9854   -0.2488    0.3219 C   0  0  0  0  0  0  0  0  0  0  0  0
   -5.4643    3.1557    0.3674 C   0  0  0  0  0  0  0  0  0  0  0  0
   -4.3219    3.9472    0.4879 C   0  0  0  0  0  0  0  0  0  0  0  0
   -6.5029    0.9438    0.1898 C   0  0  0  0  0  0  0  0  0  0  0  0
   -5.1279   -1.0404    0.2013 C   0  0  0  0  0  0  0  0  0  0  0  0
   -1.5627   -3.0355   -2.6731 C   0  0  0  0  0  0  0  0  0  0  0  0
   -6.3842   -0.4453    0.1354 C   0  0  0  0  0  0  0  0  0  0  0  0
    7.3536    2.6339   -1.3023 H   0  0  0  0  0  0  0  0  0  0  0  0
    6.7945    1.7986    0.1568 H   0  0  0  0  0  0  0  0  0  0  0  0
    6.5617    1.0544   -1.4327 H   0  0  0  0  0  0  0  0  0  0  0  0
    5.8483    3.5888   -2.9248 H   0  0  0  0  0  0  0  0  0  0  0  0
    4.9083    2.0962   -3.1206 H   0  0  0  0  0  0  0  0  0  0  0  0
    4.0901    3.6148   -2.7302 H   0  0  0  0  0  0  0  0  0  0  0  0
    6.1780    4.6426   -0.6753 H   0  0  0  0  0  0  0  0  0  0  0  0
    4.4319    4.7070   -0.3982 H   0  0  0  0  0  0  0  0  0  0  0  0
    5.4822    3.9296    0.7936 H   0  0  0  0  0  0  0  0  0  0  0  0
    2.2213    3.2584   -0.8434 H   0  0  0  0  0  0  0  0  0  0  0  0
    0.3780    0.2340    0.8593 H   0  0  0  0  0  0  0  0  0  0  0  0
    1.4392   -1.5735   -0.5258 H   0  0  0  0  0  0  0  0  0  0  0  0
    4.0346   -0.4438    2.7062 H   0  0  0  0  0  0  0  0  0  0  0  0
    3.6894   -2.6428    3.7661 H   0  0  0  0  0  0  0  0  0  0  0  0
    2.2385   -4.3274    2.7064 H   0  0  0  0  0  0  0  0  0  0  0  0
   -1.5927    0.4368    0.8075 H   0  0  0  0  0  0  0  0  0  0  0  0
    0.3902   -5.0237   -2.7533 H   0  0  0  0  0  0  0  0  0  0  0  0
   -0.1065   -5.8696   -1.2793 H   0  0  0  0  0  0  0  0  0  0  0  0
    1.2940   -3.3258   -1.5411 H   0  0  0  0  0  0  0  0  0  0  0  0
   -2.2109    4.0069    0.6894 H   0  0  0  0  0  0  0  0  0  0  0  0
   -1.9838   -4.2595   -0.9580 H   0  0  0  0  0  0  0  0  0  0  0  0
   -2.1082   -5.1077   -2.4840 H   0  0  0  0  0  0  0  0  0  0  0  0
   -3.0351   -0.7730    0.3560 H   0  0  0  0  0  0  0  0  0  0  0  0
   -6.4362    3.6424    0.3198 H   0  0  0  0  0  0  0  0  0  0  0  0
   -4.4150    5.0282    0.5400 H   0  0  0  0  0  0  0  0  0  0  0  0
   -7.4950    1.3874    0.1364 H   0  0  0  0  0  0  0  0  0  0  0  0
   -5.0364   -2.1218    0.1551 H   0  0  0  0  0  0  0  0  0  0  0  0
   -1.1573   -3.1291   -3.6855 H   0  0  0  0  0  0  0  0  0  0  0  0
   -1.0070   -2.2604   -2.1364 H   0  0  0  0  0  0  0  0  0  0  0  0
   -7.2731   -1.0621    0.0406 H   0  0  0  0  0  0  0  0  0  0  0  0
   -2.9263   -1.7664   -3.2278 H   0  0  0  0  0  0  0  0  0  0  0  0
  1 20  2  0  0  0  0
  2 25  2  0  0  0  0
  3 35  1  0  0  0  0
  3 67  1  0  0  0  0
  4  5  1  0  0  0  0
  4 15  1  0  0  0  0
  4 16  1  0  0  0  0
  5 10  2  0  0  0  0
  6 15  1  0  0  0  0
  6 20  1  0  0  0  0
  6 47  1  0  0  0  0
  7 20  1  0  0  0  0
  7 23  1  0  0  0  0
  7 52  1  0  0  0  0
  8 25  1  0  0  0  0
  8 27  1  0  0  0  0
  8 55  1  0  0  0  0
  9 10  1  0  0  0  0
  9 11  1  0  0  0  0
  9 12  1  0  0  0  0
  9 13  1  0  0  0  0
 10 14  1  0  0  0  0
 11 37  1  0  0  0  0
 11 38  1  0  0  0  0
 11 39  1  0  0  0  0
 12 40  1  0  0  0  0
 12 41  1  0  0  0  0
 12 42  1  0  0  0  0
 13 43  1  0  0  0  0
 13 44  1  0  0  0  0
 13 45  1  0  0  0  0
 14 15  2  0  0  0  0
 14 46  1  0  0  0  0
 16 17  1  0  0  0  0
 16 18  2  0  0  0  0
 17 19  2  0  0  0  0
 17 48  1  0  0  0  0
 18 21  1  0  0  0  0
 18 49  1  0  0  0  0
 19 22  1  0  0  0  0
 19 25  1  0  0  0  0
 21 22  2  0  0  0  0
 21 50  1  0  0  0  0
 22 51  1  0  0  0  0
 23 24  1  0  0  0  0
 23 28  2  0  0  0  0
 24 26  1  0  0  0  0
 24 30  2  0  0  0  0
 26 31  1  0  0  0  0
 26 33  2  0  0  0  0
 27 29  1  0  0  0  0
 27 53  1  0  0  0  0
 27 54  1  0  0  0  0
 28 32  1  0  0  0  0
 28 56  1  0  0  0  0
 29 35  1  0  0  0  0
 29 57  1  0  0  0  0
 29 58  1  0  0  0  0
 30 34  1  0  0  0  0
 30 59  1  0  0  0  0
 31 32  2  0  0  0  0
 31 60  1  0  0  0  0
 32 61  1  0  0  0  0
 33 36  1  0  0  0  0
 33 62  1  0  0  0  0
 34 36  2  0  0  0  0
 34 63  1  0  0  0  0
 35 64  1  0  0  0  0
 35 65  1  0  0  0  0
 36 66  1  0  0  0  0
M  END
> <PUBCHEM_COMPOUND_CID>
46945263

> <PUBCHEM_CONFORMER_RMSD>
1.2

> <PUBCHEM_CONFORMER_DIVERSEORDER>
2
64
26
81
71
51
65
20
78
30
55
6
85
33
80
75
60
83
27
22
84
74
67
49
53
18
43
61
70
52
59
48
77
44
40
10
19
54
79
17
63
38
82
29
42
58
76
73
57
16
25
12
69
32
31
28
37
35
62
66
39
5
36
21
72
14
45
47
7
13
50
8
56
11
34
15
9
68
4
46
3
24
23
41
1

> <PUBCHEM_MMFF94_PARTIAL_CHARGES>
46
1 -0.57
10 0.11
14 -0.15
15 -0.09
16 -0.02
17 -0.15
18 -0.15
19 0.09
2 -0.57
20 0.69
21 -0.15
22 -0.15
23 0.12
25 0.54
27 0.3
28 -0.15
3 -0.68
30 -0.15
31 -0.15
32 -0.15
33 -0.15
34 -0.15
35 0.28
36 -0.15
4 0.59
46 0.15
47 0.37
48 0.15
49 0.15
5 -0.71
50 0.15
51 0.15
52 0.37
55 0.37
56 0.15
59 0.15
6 -0.49
60 0.15
61 0.15
62 0.15
63 0.15
66 0.15
67 0.4
7 -0.55
8 -0.73
9 0.18

> <PUBCHEM_EFFECTIVE_ROTOR_COUNT>
11

> <PUBCHEM_PHARMACOPHORE_FEATURES>
13
1 1 acceptor
1 2 acceptor
1 3 acceptor
1 3 donor
1 5 acceptor
1 6 donor
1 7 donor
1 8 donor
4 9 11 12 13 hydrophobe
5 4 5 10 14 15 rings
6 16 17 18 19 21 22 rings
6 23 24 26 28 31 32 rings
6 24 26 30 33 34 36 rings

> <PUBCHEM_HEAVY_ATOM_COUNT>
36

> <PUBCHEM_ATOM_DEF_STEREO_COUNT>
0

> <PUBCHEM_ATOM_UDEF_STEREO_COUNT>
0

> <PUBCHEM_BOND_DEF_STEREO_COUNT>
0

> <PUBCHEM_BOND_UDEF_STEREO_COUNT>
0

> <PUBCHEM_ISOTOPIC_ATOM_COUNT>
0

> <PUBCHEM_COMPONENT_COUNT>
1

> <PUBCHEM_CACTVS_TAUTO_COUNT>
14

> <PUBCHEM_CONFORMER_ID>
02CC53EF00000002

> <PUBCHEM_MMFF94_ENERGY>
118.0775

> <PUBCHEM_FEATURE_SELFOVERLAP>
66.049

> <PUBCHEM_SHAPE_FINGERPRINT>
10595046 47 18334296453187650329
11135926 11 18333447638547565093
11434127 23 17313385681712546913
12107183 9 17687183089375202337
12788726 201 18125427863765239718
13150687 139 18337124436170326492
13165053 182 16597321252185358036
13692114 37 18341046432727312944
140371 6 17693375538545941929
14114206 34 17911778473911612231
14725015 67 16032662022196842451
14790565 3 18335989765360380136
15250474 111 18337382756614418993
15264996 163 17905319977439707991
15406563 185 17560513036252552299
15444296 8 17407416083613223774
16067690 210 17911236444680501622
16993438 75 17752781391553475915
17974551 9 14898587301846175547
18365409 1 18047200927205616276
18681886 176 18339640041349150864
19301679 30 18337963277949020057
19311894 1 17837772596682869366
19319366 153 18334855056063565542
1979834 28 17840856383385617419
21133410 62 18043795693151977815
21772528 278 18042983131997801180
23536364 44 17686894334602471726
23559900 14 17768537088663802749
5776283 40 18198647517772756198
6608658 132 18055624269181821071
9658208 31 18268153235638663464
9982175 49 18189312659694659930

> <PUBCHEM_SHAPE_MULTIPOLES>
698.35
14.26
7.79
2.13
8.27
6.85
-0.62
-16.44
-0.72
-2.56
-2.28
-1.89
2.85
-5.87

> <PUBCHEM_SHAPE_SELFOVERLAP>
1505.041

> <PUBCHEM_SHAPE_VOLUME>
383.3

> <PUBCHEM_COORDINATE_TYPE>
2
5
10

$$$$
