10248155
  -OEChem-10062122043D

 38 41  0     0  0  0  0  0  0999 V2000
    1.3571   -1.9260    0.9895 S   0  0  0  0  0  0  0  0  0  0  0  0
   -1.3567   -1.9263   -0.9882 S   0  0  0  0  0  0  0  0  0  0  0  0
    1.8660    3.6985    1.3601 O   0  0  0  0  0  0  0  0  0  0  0  0
   -1.8667    3.6980   -1.3596 O   0  0  0  0  0  0  0  0  0  0  0  0
    0.0001    4.1036   -0.0004 N   0  0  0  0  0  0  0  0  0  0  0  0
    0.5615    1.9528    0.4084 C   0  0  0  0  0  0  0  0  0  0  0  0
   -0.5608    1.9526   -0.4089 C   0  0  0  0  0  0  0  0  0  0  0  0
    0.5700   -0.4160    0.4157 C   0  0  0  0  0  0  0  0  0  0  0  0
   -0.5699   -0.4162   -0.4146 C   0  0  0  0  0  0  0  0  0  0  0  0
    1.1516    0.7827    0.8387 C   0  0  0  0  0  0  0  0  0  0  0  0
   -1.1513    0.7824   -0.8384 C   0  0  0  0  0  0  0  0  0  0  0  0
    0.9266    3.3439    0.6742 C   0  0  0  0  0  0  0  0  0  0  0  0
   -0.9262    3.3437   -0.6749 C   0  0  0  0  0  0  0  0  0  0  0  0
    2.9923   -1.7326    0.3028 C   0  0  0  0  0  0  0  0  0  0  0  0
   -2.9922   -1.7327   -0.3023 C   0  0  0  0  0  0  0  0  0  0  0  0
    3.1590   -1.6193   -1.0767 C   0  0  0  0  0  0  0  0  0  0  0  0
   -3.1597   -1.6187    1.0770 C   0  0  0  0  0  0  0  0  0  0  0  0
    4.1011   -1.6948    1.1468 C   0  0  0  0  0  0  0  0  0  0  0  0
   -4.1006   -1.6952   -1.1469 C   0  0  0  0  0  0  0  0  0  0  0  0
    4.4377   -1.4677   -1.6133 C   0  0  0  0  0  0  0  0  0  0  0  0
   -4.4386   -1.4670    1.6129 C   0  0  0  0  0  0  0  0  0  0  0  0
    5.3796   -1.5432    0.6103 C   0  0  0  0  0  0  0  0  0  0  0  0
   -5.3794   -1.5434   -0.6111 C   0  0  0  0  0  0  0  0  0  0  0  0
    5.5479   -1.4297   -0.7698 C   0  0  0  0  0  0  0  0  0  0  0  0
   -5.5484   -1.4293    0.7688 C   0  0  0  0  0  0  0  0  0  0  0  0
    2.0227    0.8151    1.4847 H   0  0  0  0  0  0  0  0  0  0  0  0
   -2.0223    0.8146   -1.4844 H   0  0  0  0  0  0  0  0  0  0  0  0
   -0.0003    5.1176   -0.0002 H   0  0  0  0  0  0  0  0  0  0  0  0
    2.3095   -1.6526   -1.7542 H   0  0  0  0  0  0  0  0  0  0  0  0
   -2.3106   -1.6517    1.7550 H   0  0  0  0  0  0  0  0  0  0  0  0
    3.9892   -1.7808    2.2248 H   0  0  0  0  0  0  0  0  0  0  0  0
   -3.9882   -1.7817   -2.2248 H   0  0  0  0  0  0  0  0  0  0  0  0
    4.5691   -1.3808   -2.6879 H   0  0  0  0  0  0  0  0  0  0  0  0
   -4.5705   -1.3796    2.6874 H   0  0  0  0  0  0  0  0  0  0  0  0
    6.2442   -1.5134    1.2669 H   0  0  0  0  0  0  0  0  0  0  0  0
   -6.2437   -1.5137   -1.2680 H   0  0  0  0  0  0  0  0  0  0  0  0
    6.5435   -1.3121   -1.1875 H   0  0  0  0  0  0  0  0  0  0  0  0
   -6.5442   -1.3114    1.1861 H   0  0  0  0  0  0  0  0  0  0  0  0
  1  8  1  0  0  0  0
  1 14  1  0  0  0  0
  2  9  1  0  0  0  0
  2 15  1  0  0  0  0
  3 12  2  0  0  0  0
  4 13  2  0  0  0  0
  5 12  1  0  0  0  0
  5 13  1  0  0  0  0
  5 28  1  0  0  0  0
  6  7  1  0  0  0  0
  6 10  2  0  0  0  0
  6 12  1  0  0  0  0
  7 11  2  0  0  0  0
  7 13  1  0  0  0  0
  8  9  2  0  0  0  0
  8 10  1  0  0  0  0
  9 11  1  0  0  0  0
 10 26  1  0  0  0  0
 11 27  1  0  0  0  0
 14 16  2  0  0  0  0
 14 18  1  0  0  0  0
 15 17  2  0  0  0  0
 15 19  1  0  0  0  0
 16 20  1  0  0  0  0
 16 29  1  0  0  0  0
 17 21  1  0  0  0  0
 17 30  1  0  0  0  0
 18 22  2  0  0  0  0
 18 31  1  0  0  0  0
 19 23  2  0  0  0  0
 19 32  1  0  0  0  0
 20 24  2  0  0  0  0
 20 33  1  0  0  0  0
 21 25  2  0  0  0  0
 21 34  1  0  0  0  0
 22 24  1  0  0  0  0
 22 35  1  0  0  0  0
 23 25  1  0  0  0  0
 23 36  1  0  0  0  0
 24 37  1  0  0  0  0
 25 38  1  0  0  0  0
M  END
> <PUBCHEM_COMPOUND_CID>
10248155

> <PUBCHEM_CONFORMER_RMSD>
0.8

> <PUBCHEM_CONFORMER_DIVERSEORDER>
2
4
9
14
16
3
18
13
12
11
7
1
17
8
6
15
10
5

> <PUBCHEM_MMFF94_PARTIAL_CHARGES>
38
1 -0.2
10 -0.15
11 -0.15
12 0.54
13 0.54
14 0.1
15 0.1
16 -0.15
17 -0.15
18 -0.15
19 -0.15
2 -0.2
20 -0.15
21 -0.15
22 -0.15
23 -0.15
24 -0.15
25 -0.15
26 0.15
27 0.15
28 0.37
29 0.15
3 -0.57
30 0.15
31 0.15
32 0.15
33 0.15
34 0.15
35 0.15
36 0.15
37 0.15
38 0.15
4 -0.57
5 -0.49
6 0.09
7 0.09
8 0.1
9 0.1

> <PUBCHEM_EFFECTIVE_ROTOR_COUNT>
4.2

> <PUBCHEM_PHARMACOPHORE_FEATURES>
7
1 3 acceptor
1 4 acceptor
1 5 donor
5 5 6 7 12 13 rings
6 14 16 18 20 22 24 rings
6 15 17 19 21 23 25 rings
6 6 7 8 9 10 11 rings

> <PUBCHEM_HEAVY_ATOM_COUNT>
25

> <PUBCHEM_ATOM_DEF_STEREO_COUNT>
0

> <PUBCHEM_ATOM_UDEF_STEREO_COUNT>
0

> <PUBCHEM_BOND_DEF_STEREO_COUNT>
0

> <PUBCHEM_BOND_UDEF_STEREO_COUNT>
0

> <PUBCHEM_ISOTOPIC_ATOM_COUNT>
0

> <PUBCHEM_COMPONENT_COUNT>
1

> <PUBCHEM_CACTVS_TAUTO_COUNT>
2

> <PUBCHEM_CONFORMER_ID>
009C5FDB00000002

> <PUBCHEM_MMFF94_ENERGY>
72.9065

> <PUBCHEM_FEATURE_SELFOVERLAP>
35.616

> <PUBCHEM_SHAPE_FINGERPRINT>
10764073 3 15334936342486930239
10794284 68 17836975223082554672
11421498 54 18040998388792798538
12516196 113 18409450297406753139
12553582 1 18410848863064520878
12788726 201 18260830341514529730
13009979 54 17917437591999643019
13590594 115 18411706482581955897
14347329 18 16299766695940086799
14347332 77 18196661692409995678
14739800 52 16628551642968142369
14950920 106 17976857416910850651
14955137 171 18339096967898518847
15042514 8 18194964041453970250
15081414 286 18265613367329221241
15420108 30 17626653153172592618
15664445 248 18201736062935816494
16992787 43 18192168189991781460
16994733 274 15574431020335156543
17492 89 18193837029821537298
17980427 23 17774735190497171427
17980427 26 16555350590939239064
1813 80 18343308071478026350
20101258 96 18411133606542401156
20600515 1 17917164869480479503
20642791 105 18116141169908830478
21033648 29 17346025680900159531
21049683 271 18190189055627724020
21285901 2 18059305266164623182
21641784 216 18041576740851793326
22182313 1 18198315451980450760
22849341 161 18270696341133829203
23352939 185 18272096023693824218
23557571 272 18268708316984703326
23558518 356 17756425954635459250
23559900 14 18263922323389730147
23598288 3 18048865312995880946
23845131 108 17263296028922865145
283562 15 18262241002137657170
314173 85 18413673499883064727
352729 6 17619335520542295019
4017518 198 17336465711323845564
4409770 3 18119806915927144141
469060 322 18338249158649579362
513202 73 18125452912020258854
5171179 24 18342163492943055857
59444896 2 17690053020354554469
6371380 46 18187364329738661939
7164475 11 18264210197709540438
8863177 126 17897457309655093947
9841814 1 18335690689428122082

> <PUBCHEM_SHAPE_MULTIPOLES>
505.47
10.6
4.78
1.44
0
7.89
0
-12.22
0
0
0
0
-0.29
1.11

> <PUBCHEM_SHAPE_SELFOVERLAP>
1096.706

> <PUBCHEM_SHAPE_VOLUME>
278.4

> <PUBCHEM_COORDINATE_TYPE>
2
5
10

$$$$
