135947972
  -OEChem-10052115143D

 35 37  0     0  0  0  0  0  0999 V2000
    4.1522    0.3421    1.9918 F   0  0  0  0  0  0  0  0  0  0  0  0
    5.3897    0.3228   -0.4670 O   0  0  0  0  0  0  0  0  0  0  0  0
   -2.1534    1.0073    0.0087 N   0  0  0  0  0  0  0  0  0  0  0  0
   -0.8696    1.4025   -0.0782 N   0  0  0  0  0  0  0  0  0  0  0  0
   -3.4598   -1.0279    0.1240 N   0  0  0  0  0  0  0  0  0  0  0  0
   -2.0435   -3.0132    0.0683 N   0  0  0  0  0  0  0  0  0  0  0  0
    0.3357   -2.8966   -0.0819 N   0  0  0  0  0  0  0  0  0  0  0  0
   -3.2020    1.9987    0.0539 C   0  0  0  0  0  0  0  0  0  0  0  0
   -2.3058   -0.3469    0.0406 C   0  0  0  0  0  0  0  0  0  0  0  0
   -1.0294   -0.8767   -0.0305 C   0  0  0  0  0  0  0  0  0  0  0  0
   -0.1901    0.2506   -0.1016 C   0  0  0  0  0  0  0  0  0  0  0  0
   -3.0837    2.8873    1.2945 C   0  0  0  0  0  0  0  0  0  0  0  0
   -3.2325    2.8445   -1.2216 C   0  0  0  0  0  0  0  0  0  0  0  0
    1.2479    0.2691   -0.1957 C   0  0  0  0  0  0  0  0  0  0  0  0
   -0.9184   -2.2632   -0.0145 C   0  0  0  0  0  0  0  0  0  0  0  0
    2.0221    0.2964    0.9642 C   0  0  0  0  0  0  0  0  0  0  0  0
    1.8654    0.2606   -1.4464 C   0  0  0  0  0  0  0  0  0  0  0  0
   -3.2274   -2.3583    0.1316 C   0  0  0  0  0  0  0  0  0  0  0  0
    3.4139    0.3149    0.8736 C   0  0  0  0  0  0  0  0  0  0  0  0
    3.2572    0.2794   -1.5370 C   0  0  0  0  0  0  0  0  0  0  0  0
    4.0316    0.3064   -0.3771 C   0  0  0  0  0  0  0  0  0  0  0  0
   -4.1562    1.4622    0.1194 H   0  0  0  0  0  0  0  0  0  0  0  0
   -3.0706    2.2819    2.2076 H   0  0  0  0  0  0  0  0  0  0  0  0
   -3.9325    3.5764    1.3587 H   0  0  0  0  0  0  0  0  0  0  0  0
   -2.1657    3.4852    1.2788 H   0  0  0  0  0  0  0  0  0  0  0  0
   -3.3253    2.2084   -2.1088 H   0  0  0  0  0  0  0  0  0  0  0  0
   -4.0848    3.5322   -1.2088 H   0  0  0  0  0  0  0  0  0  0  0  0
   -2.3206    3.4414   -1.3342 H   0  0  0  0  0  0  0  0  0  0  0  0
    1.5564    0.3033    1.9468 H   0  0  0  0  0  0  0  0  0  0  0  0
    1.2761    0.2391   -2.3601 H   0  0  0  0  0  0  0  0  0  0  0  0
   -4.1077   -2.9887    0.1972 H   0  0  0  0  0  0  0  0  0  0  0  0
    3.7261    0.2721   -2.5173 H   0  0  0  0  0  0  0  0  0  0  0  0
    1.1910   -2.3643   -0.1441 H   0  0  0  0  0  0  0  0  0  0  0  0
    0.3714   -3.9070   -0.0672 H   0  0  0  0  0  0  0  0  0  0  0  0
    5.6436    0.3132   -1.4059 H   0  0  0  0  0  0  0  0  0  0  0  0
  1 19  1  0  0  0  0
  2 21  1  0  0  0  0
  2 35  1  0  0  0  0
  3  4  1  0  0  0  0
  3  8  1  0  0  0  0
  3  9  1  0  0  0  0
  4 11  2  0  0  0  0
  5  9  2  0  0  0  0
  5 18  1  0  0  0  0
  6 15  1  0  0  0  0
  6 18  2  0  0  0  0
  7 15  1  0  0  0  0
  7 33  1  0  0  0  0
  7 34  1  0  0  0  0
  8 12  1  0  0  0  0
  8 13  1  0  0  0  0
  8 22  1  0  0  0  0
  9 10  1  0  0  0  0
 10 11  1  0  0  0  0
 10 15  2  0  0  0  0
 11 14  1  0  0  0  0
 12 23  1  0  0  0  0
 12 24  1  0  0  0  0
 12 25  1  0  0  0  0
 13 26  1  0  0  0  0
 13 27  1  0  0  0  0
 13 28  1  0  0  0  0
 14 16  2  0  0  0  0
 14 17  1  0  0  0  0
 16 19  1  0  0  0  0
 16 29  1  0  0  0  0
 17 20  2  0  0  0  0
 17 30  1  0  0  0  0
 18 31  1  0  0  0  0
 19 21  2  0  0  0  0
 20 21  1  0  0  0  0
 20 32  1  0  0  0  0
M  END
> <PUBCHEM_COMPOUND_CID>
135947972

> <PUBCHEM_CONFORMER_RMSD>
0.6

> <PUBCHEM_CONFORMER_DIVERSEORDER>
1
4
5
3
2
6

> <PUBCHEM_MMFF94_PARTIAL_CHARGES>
25
1 -0.19
11 0.23
14 0.05
15 0.41
16 -0.15
17 -0.15
18 0.47
19 0.19
2 -0.53
20 -0.15
21 0.08
29 0.15
3 0.31
30 0.15
31 0.15
32 0.15
33 0.4
34 0.4
35 0.45
4 -0.71
5 -0.57
6 -0.62
7 -0.9
8 0.26
9 0.11

> <PUBCHEM_EFFECTIVE_ROTOR_COUNT>
2

> <PUBCHEM_PHARMACOPHORE_FEATURES>
10
1 2 donor
1 4 acceptor
1 7 cation
1 7 donor
3 3 5 9 cation
3 5 6 18 cation
3 8 12 13 hydrophobe
5 3 4 9 10 11 rings
6 14 16 17 19 20 21 rings
6 5 6 9 10 15 18 rings

> <PUBCHEM_HEAVY_ATOM_COUNT>
21

> <PUBCHEM_ATOM_DEF_STEREO_COUNT>
0

> <PUBCHEM_ATOM_UDEF_STEREO_COUNT>
0

> <PUBCHEM_BOND_DEF_STEREO_COUNT>
0

> <PUBCHEM_BOND_UDEF_STEREO_COUNT>
0

> <PUBCHEM_ISOTOPIC_ATOM_COUNT>
0

> <PUBCHEM_COMPONENT_COUNT>
1

> <PUBCHEM_CACTVS_TAUTO_COUNT>
-1

> <PUBCHEM_CONFORMER_ID>
081A66C400000001

> <PUBCHEM_MMFF94_ENERGY>
47.1085

> <PUBCHEM_FEATURE_SELFOVERLAP>
51.025

> <PUBCHEM_SHAPE_FINGERPRINT>
10319926 262 18270099298320668104
10646746 165 18343019986910286520
11582403 64 17197932429431418120
11725454 13 17128414741676565216
12236239 1 17676487284987942702
12500047 106 18411980235217796684
12553582 1 18120944064084854951
12788726 201 18191321569916200811
13140716 1 18122634013867807411
13583140 156 17988912380381261426
13878862 14 16967737365561630057
14178342 30 18409163294817045490
15042514 8 18265341792584898491
16752209 62 18336540603257801503
16945 1 18410578426648996567
1741750 31 18341051805056316377
18186145 218 17988651748427287632
19049666 15 17916878932253897734
20510252 161 18271248312918687833
20645477 56 18411990139090998005
21033648 29 17418365909734783168
21065201 7 18412266142748638126
22112679 90 17967254221448397132
22149856 69 17830755166827562265
22182313 1 18265348218071705599
22907989 373 18261670475924866021
2334 1 18337957766830667375
23402539 116 18341327898713416055
23419403 2 17201056344367119065
23493267 7 18272091569791730056
23557571 272 18201446891024140148
23559900 14 18200601289947838854
23598291 2 17676499388284904748
23845131 108 17980783553858345857
2748010 2 18193290589584309959
283562 15 18411418449348569451
3091708 16 9055885080401241219
350125 39 18194132819738765195
469060 322 18336847350513120577
559249 180 18335419011857485834
573450 72 18260541234612314816
59755656 520 18057896753430857137
6049 1 17988647453581415088
633830 44 13901355939985377296
7615 1 17894631499908661276
77492 1 17676205805673975764
81228 2 18338526355944045787
84936 182 17623566450166205313
90525 40 18259706700485690703
9709674 26 18272100391691843422
9862522 239 17823690880846227525

> <PUBCHEM_SHAPE_MULTIPOLES>
394.12
8.1
3.14
1.22
7.47
1.05
-0.1
-3.13
-0.4
-5.14
-0.07
0.95
-0.62
0.08

> <PUBCHEM_SHAPE_SELFOVERLAP>
868.018

> <PUBCHEM_SHAPE_VOLUME>
213.8

> <PUBCHEM_COORDINATE_TYPE>
2
5
10

$$$$
