24894081
  -OEChem-10052120443D

 55 59  0     0  0  0  0  0  0999 V2000
   10.1259   -0.0624   -1.8610 F   0  0  0  0  0  0  0  0  0  0  0  0
   11.1241   -0.5780   -0.0057 F   0  0  0  0  0  0  0  0  0  0  0  0
   10.2220    1.3864   -0.2421 F   0  0  0  0  0  0  0  0  0  0  0  0
    3.5201   -1.0145    0.9427 O   0  0  0  0  0  0  0  0  0  0  0  0
   -4.9325    1.5059    0.4058 N   0  0  0  0  0  0  0  0  0  0  0  0
   -5.8565    2.4309    0.7969 N   0  0  0  0  0  0  0  0  0  0  0  0
   -4.8379   -0.7746   -0.3594 N   0  0  0  0  0  0  0  0  0  0  0  0
   -9.2357   -2.1666   -0.4520 N   0  0  0  0  0  0  0  0  0  0  0  0
   -3.0511    2.8903    0.7250 N   0  0  0  0  0  0  0  0  0  0  0  0
  -10.1258   -1.2376   -0.0635 N   0  0  0  0  0  0  0  0  0  0  0  0
    2.8518    0.6745   -0.5373 N   0  0  0  0  0  0  0  0  0  0  0  0
    5.0984    0.2043   -0.2789 N   0  0  0  0  0  0  0  0  0  0  0  0
   -5.5525    0.3036    0.0583 C   0  0  0  0  0  0  0  0  0  0  0  0
   -6.9043    0.4907    0.2357 C   0  0  0  0  0  0  0  0  0  0  0  0
   -2.7837    0.6253   -0.0811 C   0  0  0  0  0  0  0  0  0  0  0  0
   -3.5335    1.6684    0.3391 C   0  0  0  0  0  0  0  0  0  0  0  0
   -1.3193    0.6389   -0.1989 C   0  0  0  0  0  0  0  0  0  0  0  0
   -7.9882   -0.4367    0.0194 C   0  0  0  0  0  0  0  0  0  0  0  0
   -7.0283    1.8086    0.6880 C   0  0  0  0  0  0  0  0  0  0  0  0
   -3.5534   -0.6115   -0.4181 C   0  0  0  0  0  0  0  0  0  0  0  0
   -7.9414   -1.7372   -0.4202 C   0  0  0  0  0  0  0  0  0  0  0  0
   -0.5510   -0.2512    0.5518 C   0  0  0  0  0  0  0  0  0  0  0  0
   -0.6971    1.5409   -1.0619 C   0  0  0  0  0  0  0  0  0  0  0  0
   -9.3579   -0.1832    0.2233 C   0  0  0  0  0  0  0  0  0  0  0  0
    1.4613    0.6631   -0.4235 C   0  0  0  0  0  0  0  0  0  0  0  0
    0.8392   -0.2391    0.4395 C   0  0  0  0  0  0  0  0  0  0  0  0
    0.6931    1.5531   -1.1742 C   0  0  0  0  0  0  0  0  0  0  0  0
   -9.6939   -3.4759   -0.8507 C   0  0  0  0  0  0  0  0  0  0  0  0
    6.3234   -0.3636    0.1440 C   0  0  0  0  0  0  0  0  0  0  0  0
    3.7998   -0.1398    0.1293 C   0  0  0  0  0  0  0  0  0  0  0  0
    8.7359   -0.4470    0.0472 C   0  0  0  0  0  0  0  0  0  0  0  0
    7.5288    0.1123   -0.3718 C   0  0  0  0  0  0  0  0  0  0  0  0
    6.3252   -1.3989    1.0789 C   0  0  0  0  0  0  0  0  0  0  0  0
    8.7377   -1.4823    0.9819 C   0  0  0  0  0  0  0  0  0  0  0  0
    7.5324   -1.9583    1.4977 C   0  0  0  0  0  0  0  0  0  0  0  0
   10.0250    0.0616   -0.5044 C   0  0  0  0  0  0  0  0  0  0  0  0
   -7.9210    2.3595    0.9496 H   0  0  0  0  0  0  0  0  0  0  0  0
   -2.9451   -1.4668   -0.7582 H   0  0  0  0  0  0  0  0  0  0  0  0
   -7.1223   -2.3826   -0.7074 H   0  0  0  0  0  0  0  0  0  0  0  0
   -1.0205   -0.9584    1.2316 H   0  0  0  0  0  0  0  0  0  0  0  0
   -1.2781    2.2368   -1.6622 H   0  0  0  0  0  0  0  0  0  0  0  0
   -9.8407    0.7206    0.5680 H   0  0  0  0  0  0  0  0  0  0  0  0
    1.3621   -0.9579    1.0539 H   0  0  0  0  0  0  0  0  0  0  0  0
    1.1645    2.2601   -1.8522 H   0  0  0  0  0  0  0  0  0  0  0  0
   -2.0557    3.0704    0.7382 H   0  0  0  0  0  0  0  0  0  0  0  0
   -3.6936    3.6090    1.0351 H   0  0  0  0  0  0  0  0  0  0  0  0
    3.2315    1.3594   -1.1861 H   0  0  0  0  0  0  0  0  0  0  0  0
  -10.2186   -3.9286   -0.0056 H   0  0  0  0  0  0  0  0  0  0  0  0
  -10.3668   -3.3596   -1.7040 H   0  0  0  0  0  0  0  0  0  0  0  0
   -8.8371   -4.0930   -1.1322 H   0  0  0  0  0  0  0  0  0  0  0  0
    5.1788    0.9536   -0.9617 H   0  0  0  0  0  0  0  0  0  0  0  0
    7.5314    0.9197   -1.1007 H   0  0  0  0  0  0  0  0  0  0  0  0
    5.4368   -1.8227    1.5245 H   0  0  0  0  0  0  0  0  0  0  0  0
    9.6676   -1.9309    1.3204 H   0  0  0  0  0  0  0  0  0  0  0  0
    7.5351   -2.7647    2.2256 H   0  0  0  0  0  0  0  0  0  0  0  0
  1 36  1  0  0  0  0
  2 36  1  0  0  0  0
  3 36  1  0  0  0  0
  4 30  2  0  0  0  0
  5  6  1  0  0  0  0
  5 13  1  0  0  0  0
  5 16  1  0  0  0  0
  6 19  2  0  0  0  0
  7 13  1  0  0  0  0
  7 20  2  0  0  0  0
  8 10  1  0  0  0  0
  8 21  1  0  0  0  0
  8 28  1  0  0  0  0
  9 16  1  0  0  0  0
  9 45  1  0  0  0  0
  9 46  1  0  0  0  0
 10 24  2  0  0  0  0
 11 25  1  0  0  0  0
 11 30  1  0  0  0  0
 11 47  1  0  0  0  0
 12 29  1  0  0  0  0
 12 30  1  0  0  0  0
 12 51  1  0  0  0  0
 13 14  2  0  0  0  0
 14 18  1  0  0  0  0
 14 19  1  0  0  0  0
 15 16  2  0  0  0  0
 15 17  1  0  0  0  0
 15 20  1  0  0  0  0
 17 22  2  0  0  0  0
 17 23  1  0  0  0  0
 18 21  2  0  0  0  0
 18 24  1  0  0  0  0
 19 37  1  0  0  0  0
 20 38  1  0  0  0  0
 21 39  1  0  0  0  0
 22 26  1  0  0  0  0
 22 40  1  0  0  0  0
 23 27  2  0  0  0  0
 23 41  1  0  0  0  0
 24 42  1  0  0  0  0
 25 26  2  0  0  0  0
 25 27  1  0  0  0  0
 26 43  1  0  0  0  0
 27 44  1  0  0  0  0
 28 48  1  0  0  0  0
 28 49  1  0  0  0  0
 28 50  1  0  0  0  0
 29 32  1  0  0  0  0
 29 33  2  0  0  0  0
 31 32  2  0  0  0  0
 31 34  1  0  0  0  0
 31 36  1  0  0  0  0
 32 52  1  0  0  0  0
 33 35  1  0  0  0  0
 33 53  1  0  0  0  0
 34 35  2  0  0  0  0
 34 54  1  0  0  0  0
 35 55  1  0  0  0  0
M  END
> <PUBCHEM_COMPOUND_CID>
24894081

> <PUBCHEM_CONFORMER_RMSD>
1

> <PUBCHEM_CONFORMER_DIVERSEORDER>
2
16
17
23
45
7
41
28
29
43
14
35
24
20
5
18
3
21
42
26
12
44
36
4
19
32
27
40
1
30
15
25
6
38
11
22
13
9
39
31
33
8
10
34
37

> <PUBCHEM_MMFF94_PARTIAL_CHARGES>
50
1 -0.34
10 -0.71
11 -0.55
12 -0.55
13 -0.03
15 -0.01
16 0.07
17 0.03
19 0.14
2 -0.34
20 0.38
21 -0.3
22 -0.15
23 -0.15
24 0.14
25 0.12
26 -0.15
27 -0.15
28 0.26
29 0.12
3 -0.34
30 0.69
31 -0.14
32 -0.15
33 -0.15
34 -0.15
35 -0.15
36 1.16
37 0.15
38 0.06
39 0.15
4 -0.57
40 0.15
41 0.15
42 0.15
43 0.15
44 0.15
45 0.4
46 0.4
47 0.37
5 0.6
51 0.37
52 0.15
53 0.15
54 0.15
55 0.15
6 -0.71
7 -0.58
8 0.31
9 -0.9

> <PUBCHEM_EFFECTIVE_ROTOR_COUNT>
7

> <PUBCHEM_PHARMACOPHORE_FEATURES>
13
1 10 acceptor
1 11 donor
1 12 donor
1 4 acceptor
1 6 acceptor
1 7 acceptor
1 9 cation
1 9 donor
5 5 6 13 14 19 rings
5 8 10 18 21 24 rings
6 17 22 23 25 26 27 rings
6 29 31 32 33 34 35 rings
6 5 7 13 15 16 20 rings

> <PUBCHEM_HEAVY_ATOM_COUNT>
36

> <PUBCHEM_ATOM_DEF_STEREO_COUNT>
0

> <PUBCHEM_ATOM_UDEF_STEREO_COUNT>
0

> <PUBCHEM_BOND_DEF_STEREO_COUNT>
0

> <PUBCHEM_BOND_UDEF_STEREO_COUNT>
0

> <PUBCHEM_ISOTOPIC_ATOM_COUNT>
0

> <PUBCHEM_COMPONENT_COUNT>
1

> <PUBCHEM_CACTVS_TAUTO_COUNT>
15

> <PUBCHEM_CONFORMER_ID>
017BDA8100000002

> <PUBCHEM_MMFF94_ENERGY>
94.8335

> <PUBCHEM_FEATURE_SELFOVERLAP>
66.15

> <PUBCHEM_SHAPE_FINGERPRINT>
10076449 9 17458343039765466765
10100884 174 18338794632977931635
10162869 55 17748829631442338980
10190206 1 13262667116348960183
10299344 5 18334858290865055520
10391435 84 16298396768813057528
10533779 47 15913334563987468174
10580692 12 18411136953113378016
11135609 99 18338236080964818463
12013929 94 18341896307063868034
12089408 11 18334294232641227976
12144603 126 18335140908598596134
12498461 61 18342170072701389455
12539745 222 18131071507201791329
12559415 90 11458419154983577422
12592606 108 18261109681881353219
12741549 16 16988844986937790729
12838862 33 15502373439852101432
13974486 7 17699838817126953799
14040222 383 18341891900459409106
14202775 3 18271812289908175246
14251764 18 18333452015572368168
14251764 46 18410856559650345582
14344974 52 18343301501195908728
14918687 75 18411133666671982558
15065858 18 18060137614178753708
15145343 6 17775846821879559864
15347591 1 11814454236151337372
15392192 104 18273495659558565166
15461852 350 18342741805746159233
15510794 2 17846504712267407366
15728490 51 18413105057230649615
16120349 18 17676211286843913420
16728433 110 17603870022035473637
17686467 74 18272363183471457513
20105231 36 16702300144335165790
21095123 145 17775564247638835061
21102433 48 18259978267669929306
21792961 116 15213013826239902357
232437 2 18410856564156543318
24771293 8 18260555472081261196
3092352 35 18409448069268026026
335352 9 17894633669004048622
335507 130 17917710210162543124
44389302 135 18340763737316200818
4760202 70 18113904871027872588
54039377 194 18336262427638991687
57303763 39 18200874101559334238
58083652 198 15864083065723670316
59521270 166 17458621195729366127
6057620 51 18261110743001929130
636775 8 18412263969970232383
6691757 9 18202009828467368715
67123 10 18410012135126434536
9663363 56 13984381085902300342
9953998 17 15410889687480802301
9962374 69 18259982699547929940

> <PUBCHEM_SHAPE_MULTIPOLES>
673.32
43.24
2.32
1.02
41.14
0.53
0.06
21.75
2.61
-5.82
-0.08
1.19
0.06
-3.75

> <PUBCHEM_SHAPE_SELFOVERLAP>
1497.899

> <PUBCHEM_SHAPE_VOLUME>
360.2

> <PUBCHEM_COORDINATE_TYPE>
2
5
10

$$$$
