52943394
  -OEChem-10052115143D

 47 50  0     1  0  0  0  0  0999 V2000
   -6.1547   -3.0756   -0.2617 Cl  0  0  0  0  0  0  0  0  0  0  0  0
   -4.3546   -2.5295    2.0843 O   0  0  0  0  0  0  0  0  0  0  0  0
    6.5959   -1.1185    1.1759 N   0  0  0  0  0  0  0  0  0  0  0  0
    0.8230    0.7273   -0.5200 N   0  0  0  0  0  0  0  0  0  0  0  0
   -0.0395   -0.3039   -0.5877 N   0  0  0  0  0  0  0  0  0  0  0  0
    0.8318    3.1069   -0.0731 N   0  0  0  0  0  0  0  0  0  0  0  0
   -1.4083    3.9416    0.4125 N   0  0  0  0  0  0  0  0  0  0  0  0
   -3.3344    2.5321    0.4300 N   0  0  0  0  0  0  0  0  0  0  0  0
    4.4659   -0.3559    0.1597 C   0  0  1  0  0  0  0  0  0  0  0  0
    4.6894   -1.3004   -1.0278 C   0  0  0  0  0  0  0  0  0  0  0  0
    2.9739   -0.1555    0.4179 C   0  0  0  0  0  0  0  0  0  0  0  0
    5.1690   -0.8936    1.4147 C   0  0  0  0  0  0  0  0  0  0  0  0
    6.1767   -1.5868   -1.2128 C   0  0  0  0  0  0  0  0  0  0  0  0
    6.8132   -2.0714    0.0875 C   0  0  0  0  0  0  0  0  0  0  0  0
    2.2879    0.4896   -0.7837 C   0  0  0  0  0  0  0  0  0  0  0  0
    0.2297    1.9147   -0.2094 C   0  0  0  0  0  0  0  0  0  0  0  0
   -1.1189    1.6411   -0.0633 C   0  0  0  0  0  0  0  0  0  0  0  0
   -1.2202    0.2591   -0.3086 C   0  0  0  0  0  0  0  0  0  0  0  0
   -2.4128   -0.5499   -0.2900 C   0  0  0  0  0  0  0  0  0  0  0  0
   -1.9495    2.7091    0.2596 C   0  0  0  0  0  0  0  0  0  0  0  0
   -0.0705    4.0622    0.2391 C   0  0  0  0  0  0  0  0  0  0  0  0
   -2.8224   -1.1620    0.8945 C   0  0  0  0  0  0  0  0  0  0  0  0
   -3.1580   -0.7202   -1.4569 C   0  0  0  0  0  0  0  0  0  0  0  0
   -3.9772   -1.9441    0.9125 C   0  0  0  0  0  0  0  0  0  0  0  0
   -4.3128   -1.5023   -1.4390 C   0  0  0  0  0  0  0  0  0  0  0  0
   -4.7224   -2.1142   -0.2543 C   0  0  0  0  0  0  0  0  0  0  0  0
    4.9097    0.6193   -0.0867 H   0  0  0  0  0  0  0  0  0  0  0  0
    4.1546   -2.2449   -0.8662 H   0  0  0  0  0  0  0  0  0  0  0  0
    4.3113   -0.8680   -1.9596 H   0  0  0  0  0  0  0  0  0  0  0  0
    2.4943   -1.1140    0.6539 H   0  0  0  0  0  0  0  0  0  0  0  0
    2.8337    0.4840    1.2989 H   0  0  0  0  0  0  0  0  0  0  0  0
    4.6968   -1.8240    1.7550 H   0  0  0  0  0  0  0  0  0  0  0  0
    5.0652   -0.1679    2.2296 H   0  0  0  0  0  0  0  0  0  0  0  0
    6.6847   -0.6759   -1.5543 H   0  0  0  0  0  0  0  0  0  0  0  0
    6.3135   -2.3414   -1.9957 H   0  0  0  0  0  0  0  0  0  0  0  0
    6.4133   -3.0551    0.3624 H   0  0  0  0  0  0  0  0  0  0  0  0
    7.8909   -2.1951   -0.0649 H   0  0  0  0  0  0  0  0  0  0  0  0
    2.7200    1.4648   -1.0306 H   0  0  0  0  0  0  0  0  0  0  0  0
    2.2990   -0.1419   -1.6774 H   0  0  0  0  0  0  0  0  0  0  0  0
    7.0263   -1.4775    2.0276 H   0  0  0  0  0  0  0  0  0  0  0  0
    0.3296    5.0621    0.3688 H   0  0  0  0  0  0  0  0  0  0  0  0
   -2.2420   -1.0292    1.8054 H   0  0  0  0  0  0  0  0  0  0  0  0
   -2.8526   -0.2492   -2.3883 H   0  0  0  0  0  0  0  0  0  0  0  0
   -3.9019    3.3354    0.6647 H   0  0  0  0  0  0  0  0  0  0  0  0
   -3.7660    1.6260    0.3227 H   0  0  0  0  0  0  0  0  0  0  0  0
   -4.8829   -1.6251   -2.3564 H   0  0  0  0  0  0  0  0  0  0  0  0
   -3.7152   -2.2962    2.7790 H   0  0  0  0  0  0  0  0  0  0  0  0
  1 26  1  0  0  0  0
  2 24  1  0  0  0  0
  2 47  1  0  0  0  0
  3 12  1  0  0  0  0
  3 14  1  0  0  0  0
  3 40  1  0  0  0  0
  4  5  1  0  0  0  0
  4 15  1  0  0  0  0
  4 16  1  0  0  0  0
  5 18  2  0  0  0  0
  6 16  2  0  0  0  0
  6 21  1  0  0  0  0
  7 20  1  0  0  0  0
  7 21  2  0  0  0  0
  8 20  1  0  0  0  0
  8 44  1  0  0  0  0
  8 45  1  0  0  0  0
  9 10  1  0  0  0  0
  9 11  1  0  0  0  0
  9 12  1  0  0  0  0
  9 27  1  0  0  0  0
 10 13  1  0  0  0  0
 10 28  1  0  0  0  0
 10 29  1  0  0  0  0
 11 15  1  0  0  0  0
 11 30  1  0  0  0  0
 11 31  1  0  0  0  0
 12 32  1  0  0  0  0
 12 33  1  0  0  0  0
 13 14  1  0  0  0  0
 13 34  1  0  0  0  0
 13 35  1  0  0  0  0
 14 36  1  0  0  0  0
 14 37  1  0  0  0  0
 15 38  1  0  0  0  0
 15 39  1  0  0  0  0
 16 17  1  0  0  0  0
 17 18  1  0  0  0  0
 17 20  2  0  0  0  0
 18 19  1  0  0  0  0
 19 22  2  0  0  0  0
 19 23  1  0  0  0  0
 21 41  1  0  0  0  0
 22 24  1  0  0  0  0
 22 42  1  0  0  0  0
 23 25  2  0  0  0  0
 23 43  1  0  0  0  0
 24 26  2  0  0  0  0
 25 26  1  0  0  0  0
 25 46  1  0  0  0  0
M  END
> <PUBCHEM_COMPOUND_CID>
52943394

> <PUBCHEM_CONFORMER_RMSD>
0.8

> <PUBCHEM_CONFORMER_DIVERSEORDER>
3
71
53
80
58
87
95
15
31
54
76
46
48
65
63
78
86
42
50
70
57
77
26
55
92
94
60
47
62
5
51
88
25
45
79
19
44
24
59
52
90
43
67
93
75
64
37
30
74
14
23
10
96
35
36
28
72
69
97
49
104
56
66
32
21
68
27
29
99
39
102
83
98
22
41
73
91
34
12
103
18
33
13
81
9
61
38
85
17
7
101
82
11
40
20
16
2
4
84
6
8
1
100
89

> <PUBCHEM_MMFF94_PARTIAL_CHARGES>
29
1 -0.18
12 0.27
14 0.27
15 0.26
16 0.11
18 0.23
19 0.05
2 -0.53
20 0.41
21 0.47
22 -0.15
23 -0.15
24 0.08
25 -0.15
26 0.18
3 -0.9
4 0.31
40 0.36
41 0.15
42 0.15
43 0.15
44 0.4
45 0.4
46 0.15
47 0.45
5 -0.71
6 -0.57
7 -0.62
8 -0.9

> <PUBCHEM_EFFECTIVE_ROTOR_COUNT>
5.2

> <PUBCHEM_PHARMACOPHORE_FEATURES>
12
1 2 donor
1 3 cation
1 3 donor
1 5 acceptor
1 8 cation
1 8 donor
3 4 6 16 cation
3 6 7 21 cation
5 4 5 16 17 18 rings
6 19 22 23 24 25 26 rings
6 3 9 10 12 13 14 rings
6 6 7 16 17 20 21 rings

> <PUBCHEM_HEAVY_ATOM_COUNT>
26

> <PUBCHEM_ATOM_DEF_STEREO_COUNT>
0

> <PUBCHEM_ATOM_UDEF_STEREO_COUNT>
1

> <PUBCHEM_BOND_DEF_STEREO_COUNT>
0

> <PUBCHEM_BOND_UDEF_STEREO_COUNT>
0

> <PUBCHEM_ISOTOPIC_ATOM_COUNT>
0

> <PUBCHEM_COMPONENT_COUNT>
1

> <PUBCHEM_CACTVS_TAUTO_COUNT>
15

> <PUBCHEM_CONFORMER_ID>
0327DA2200000003

> <PUBCHEM_MMFF94_ENERGY>
50.1552

> <PUBCHEM_FEATURE_SELFOVERLAP>
61.177

> <PUBCHEM_SHAPE_FINGERPRINT>
10050765 1 18410855490236176853
10411042 1 18412262874004109005
11545043 162 18059006178185770914
11809386 21 18262513681242631706
12107183 9 18270977825338758571
12166972 35 17894911862420166926
12342043 65 17534352416581669083
12422481 6 17703524224090517135
12516196 113 18339076094335737718
12553582 1 18270694180385393399
12760667 363 18334576858506085227
12788726 201 18335150799560203370
13140716 1 18342181067975974969
13540713 4 18267846406583904340
13540713 5 18337691783189888941
13631057 29 18334292046698286906
13673619 4 17895474834365609791
13782708 43 17917428675874545926
14844126 61 18341044129886461419
14866123 147 18337395946553670729
15042514 8 18340773641489237645
15131766 46 16229754291370013252
15183329 4 15285347414945349526
15250474 111 17972028151119228234
15927050 60 17979074882196333315
16087824 20 18196088847295113885
17492 89 18411421683753946278
17686467 74 18334571353307369696
17844677 252 18272930493480620464
1813 80 18130241448330089685
18222031 100 18342177820821846006
18927931 339 18343021060314552886
19301679 30 18342468049221753551
193927 3 18335988631509814262
19784866 34 8358271327644570871
20832881 197 18262235638108184523
21703447 108 18338223964693407936
22122407 14 15338827621691180528
23175994 123 18337109076992638431
23559900 14 17460309082910489111
3004659 81 17967530203320315038
314173 85 18341894095392976910
4073 2 18269274552909898218
437815 12 18335980960904049359
463206 1 18263080088202348627
484985 159 17967543367606087515
5104073 3 18343016667338566736
513202 73 18271813367385459582
5309563 4 18411701014751458287
5486654 36 18334021596622978929
77188 2 18339641256124028669
7970288 3 18411135882944432510

> <PUBCHEM_SHAPE_MULTIPOLES>
501.18
15.1
4.4
1.27
18.83
4.92
0.18
-19.71
1.1
-4.19
0.65
-0.14
-0.83
0.23

> <PUBCHEM_SHAPE_SELFOVERLAP>
1079.045

> <PUBCHEM_SHAPE_VOLUME>
276.5

> <PUBCHEM_COORDINATE_TYPE>
2
5
10

$$$$
