49830703
  -OEChem-10062121523D

 38 40  0     0  0  0  0  0  0999 V2000
   -7.3938    0.2668   -0.0034 F   0  0  0  0  0  0  0  0  0  0  0  0
   -6.3753   -1.3198   -1.0866 F   0  0  0  0  0  0  0  0  0  0  0  0
   -6.3780   -1.3199    1.0821 F   0  0  0  0  0  0  0  0  0  0  0  0
    7.4673   -1.2052   -0.0001 F   0  0  0  0  0  0  0  0  0  0  0  0
    5.7998   -2.0834    1.0841 F   0  0  0  0  0  0  0  0  0  0  0  0
    5.8004   -2.0842   -1.0847 F   0  0  0  0  0  0  0  0  0  0  0  0
    1.4738   -1.0184    0.0009 O   0  0  0  0  0  0  0  0  0  0  0  0
   -0.1755    0.6443    0.0020 N   0  0  0  0  0  0  0  0  0  0  0  0
   -3.6797   -1.6379    0.0007 N   0  0  0  0  0  0  0  0  0  0  0  0
    2.0494    1.2483    0.0004 N   0  0  0  0  0  0  0  0  0  0  0  0
    4.0752    0.0032   -0.0009 N   0  0  0  0  0  0  0  0  0  0  0  0
   -2.6223    0.5277    0.0019 C   0  0  0  0  0  0  0  0  0  0  0  0
   -3.7687   -0.2943    0.0008 C   0  0  0  0  0  0  0  0  0  0  0  0
   -1.3657   -0.0927    0.0029 C   0  0  0  0  0  0  0  0  0  0  0  0
   -5.0168    0.3225   -0.0003 C   0  0  0  0  0  0  0  0  0  0  0  0
   -2.7524    1.9269    0.0019 C   0  0  0  0  0  0  0  0  0  0  0  0
   -5.1464    1.7135   -0.0002 C   0  0  0  0  0  0  0  0  0  0  0  0
   -1.2707   -1.4768    0.0028 C   0  0  0  0  0  0  0  0  0  0  0  0
   -4.0130    2.5170    0.0009 C   0  0  0  0  0  0  0  0  0  0  0  0
   -6.2678   -0.5006   -0.0020 C   0  0  0  0  0  0  0  0  0  0  0  0
   -2.4480   -2.1972    0.0017 C   0  0  0  0  0  0  0  0  0  0  0  0
    1.1546    0.1662    0.0010 C   0  0  0  0  0  0  0  0  0  0  0  0
    3.4637    1.2088   -0.0005 C   0  0  0  0  0  0  0  0  0  0  0  0
    5.4271    0.0155   -0.0014 C   0  0  0  0  0  0  0  0  0  0  0  0
    4.1368    2.4199   -0.0006 C   0  0  0  0  0  0  0  0  0  0  0  0
    6.1920    1.1708   -0.0016 C   0  0  0  0  0  0  0  0  0  0  0  0
    5.5269    2.3919   -0.0011 C   0  0  0  0  0  0  0  0  0  0  0  0
    6.1071   -1.3128   -0.0005 C   0  0  0  0  0  0  0  0  0  0  0  0
   -1.9031    2.6020    0.0028 H   0  0  0  0  0  0  0  0  0  0  0  0
   -6.1223    2.1910   -0.0010 H   0  0  0  0  0  0  0  0  0  0  0  0
   -0.3648   -2.0594    0.0036 H   0  0  0  0  0  0  0  0  0  0  0  0
   -4.1102    3.5985    0.0009 H   0  0  0  0  0  0  0  0  0  0  0  0
   -0.2558    1.6539    0.0016 H   0  0  0  0  0  0  0  0  0  0  0  0
   -2.4376   -3.2824    0.0016 H   0  0  0  0  0  0  0  0  0  0  0  0
    1.6381    2.1783    0.0008 H   0  0  0  0  0  0  0  0  0  0  0  0
    3.6128    3.3702   -0.0001 H   0  0  0  0  0  0  0  0  0  0  0  0
    7.2762    1.1481   -0.0018 H   0  0  0  0  0  0  0  0  0  0  0  0
    6.0908    3.3198   -0.0012 H   0  0  0  0  0  0  0  0  0  0  0  0
  1 20  1  0  0  0  0
  2 20  1  0  0  0  0
  3 20  1  0  0  0  0
  4 28  1  0  0  0  0
  5 28  1  0  0  0  0
  6 28  1  0  0  0  0
  7 22  2  0  0  0  0
  8 14  1  0  0  0  0
  8 22  1  0  0  0  0
  8 33  1  0  0  0  0
  9 13  2  0  0  0  0
  9 21  1  0  0  0  0
 10 22  1  0  0  0  0
 10 23  1  0  0  0  0
 10 35  1  0  0  0  0
 11 23  1  0  0  0  0
 11 24  2  0  0  0  0
 12 13  1  0  0  0  0
 12 14  2  0  0  0  0
 12 16  1  0  0  0  0
 13 15  1  0  0  0  0
 14 18  1  0  0  0  0
 15 17  2  0  0  0  0
 15 20  1  0  0  0  0
 16 19  2  0  0  0  0
 16 29  1  0  0  0  0
 17 19  1  0  0  0  0
 17 30  1  0  0  0  0
 18 21  2  0  0  0  0
 18 31  1  0  0  0  0
 19 32  1  0  0  0  0
 21 34  1  0  0  0  0
 23 25  2  0  0  0  0
 24 26  1  0  0  0  0
 24 28  1  0  0  0  0
 25 27  1  0  0  0  0
 25 36  1  0  0  0  0
 26 27  2  0  0  0  0
 26 37  1  0  0  0  0
 27 38  1  0  0  0  0
M  END
> <PUBCHEM_COMPOUND_CID>
49830703

> <PUBCHEM_CONFORMER_RMSD>
0.8

> <PUBCHEM_CONFORMER_DIVERSEORDER>
1
24
7
9
8
14
10
17
16
6
11
4
23
5
15
18
12
13
19
3
21
2
20
22

> <PUBCHEM_MMFF94_PARTIAL_CHARGES>
37
1 -0.34
10 -0.55
11 -0.62
13 0.31
14 0.12
15 -0.14
16 -0.15
17 -0.15
18 -0.15
19 -0.15
2 -0.34
20 1.16
21 0.16
22 0.69
23 0.43
24 0.17
25 -0.15
26 -0.15
27 -0.15
28 1.16
29 0.15
3 -0.34
30 0.15
31 0.15
32 0.15
33 0.37
34 0.15
35 0.37
36 0.15
37 0.15
38 0.15
4 -0.34
5 -0.34
6 -0.34
7 -0.57
8 -0.55
9 -0.62

> <PUBCHEM_EFFECTIVE_ROTOR_COUNT>
6

> <PUBCHEM_PHARMACOPHORE_FEATURES>
8
1 10 donor
1 11 acceptor
1 7 acceptor
1 8 donor
1 9 acceptor
6 11 23 24 25 26 27 rings
6 12 13 15 16 17 19 rings
6 9 12 13 14 18 21 rings

> <PUBCHEM_HEAVY_ATOM_COUNT>
28

> <PUBCHEM_ATOM_DEF_STEREO_COUNT>
0

> <PUBCHEM_ATOM_UDEF_STEREO_COUNT>
0

> <PUBCHEM_BOND_DEF_STEREO_COUNT>
0

> <PUBCHEM_BOND_UDEF_STEREO_COUNT>
0

> <PUBCHEM_ISOTOPIC_ATOM_COUNT>
0

> <PUBCHEM_COMPONENT_COUNT>
1

> <PUBCHEM_CACTVS_TAUTO_COUNT>
11

> <PUBCHEM_CONFORMER_ID>
02F85B2F00000001

> <PUBCHEM_MMFF94_ENERGY>
73.4004

> <PUBCHEM_FEATURE_SELFOVERLAP>
40.681

> <PUBCHEM_SHAPE_FINGERPRINT>
10411042 1 17906172112284762491
10595046 47 18338234993958277700
11315181 36 18040720285918873773
11524674 6 16630526258699186471
11719270 70 17846499214614465950
12107183 9 18121215373274591392
12166972 35 18408888451154555228
12236239 1 18187082858096724985
13073987 5 18411699885581111552
13533116 47 18342738533619409088
13782708 43 17988922318698331151
14251764 18 18410011044500224900
14341114 176 18408325514111896404
14933364 13 18409731772456907500
15183329 4 18411703179746661298
15419008 42 17841993282698469852
1577012 14 18342462529830296408
17844677 252 18410580578475311960
19611394 137 17970080022814930483
19958102 18 18261386750068819719
20281389 69 18408322193938691737
21130935 74 18273216412762493651
21236236 1 18412826885236809201
21267235 1 18408890632902112673
21279426 13 18339360764926443828
21315763 129 18412545379715338196
21315763 28 18411135831451433570
21315764 268 18409443713216659332
23522609 53 17986138368211121009
23559900 14 18268704081967757441
23569943 247 17387402438088715530
3004659 81 18408887322431821792
335352 9 18410575088984433388
34797466 226 17846789541592665348
350125 39 18411136944043096673
3545911 37 18410575106259553029
4073 2 18042127721063585186
4197921 191 18335706061290484964
4214541 1 18410573985536910784
5104073 3 18411981364857766048
559249 180 18411134697458618242
59755656 215 18261111850697815594
59755656 520 17458622346084808531
9965369 4 18410291384977913049
9996256 80 18412824689959511509

> <PUBCHEM_SHAPE_MULTIPOLES>
506.79
21.14
2.59
0.7
8.25
0.36
0
-2.9
-0.02
1.37
0
-0.04
-0.19
0

> <PUBCHEM_SHAPE_SELFOVERLAP>
1118.772

> <PUBCHEM_SHAPE_VOLUME>
271.3

> <PUBCHEM_COORDINATE_TYPE>
2
5
10

$$$$
