9797370
  -OEChem-10052115153D

 40 43  0     0  0  0  0  0  0999 V2000
   -6.2278    2.0768   -0.5425 F   0  0  0  0  0  0  0  0  0  0  0  0
    5.6768   -1.2135   -0.4688 O   0  0  0  0  0  0  0  0  0  0  0  0
    5.4462    1.4353    0.3086 O   0  0  0  0  0  0  0  0  0  0  0  0
   -0.2852    1.6717    0.6298 N   0  0  0  0  0  0  0  0  0  0  0  0
   -1.5729    1.2454    0.5635 N   0  0  0  0  0  0  0  0  0  0  0  0
   -2.5029   -0.9012   -0.0191 N   0  0  0  0  0  0  0  0  0  0  0  0
    0.6986   -1.6012   -0.3635 C   0  0  0  0  0  0  0  0  0  0  0  0
   -0.1429   -0.4309    0.0129 C   0  0  0  0  0  0  0  0  0  0  0  0
    2.0678   -0.9079   -0.2229 C   0  0  0  0  0  0  0  0  0  0  0  0
    0.5784    0.6923    0.3064 C   0  0  0  0  0  0  0  0  0  0  0  0
    1.9712    0.4549    0.1763 C   0  0  0  0  0  0  0  0  0  0  0  0
   -1.4718   -0.0431    0.1850 C   0  0  0  0  0  0  0  0  0  0  0  0
    3.3105   -1.4751   -0.4418 C   0  0  0  0  0  0  0  0  0  0  0  0
    3.0742    1.2579    0.3608 C   0  0  0  0  0  0  0  0  0  0  0  0
    4.4415   -0.6715   -0.2583 C   0  0  0  0  0  0  0  0  0  0  0  0
    4.3244    0.6766    0.1377 C   0  0  0  0  0  0  0  0  0  0  0  0
   -3.9037   -0.6636   -0.0248 C   0  0  0  0  0  0  0  0  0  0  0  0
   -4.3828    0.6147   -0.2856 C   0  0  0  0  0  0  0  0  0  0  0  0
   -4.7795   -1.7121    0.2300 C   0  0  0  0  0  0  0  0  0  0  0  0
    6.3131   -1.8231    0.6509 C   0  0  0  0  0  0  0  0  0  0  0  0
    5.9234    2.1474   -0.8298 C   0  0  0  0  0  0  0  0  0  0  0  0
   -5.7579    0.8478   -0.2917 C   0  0  0  0  0  0  0  0  0  0  0  0
   -6.1547   -1.4788    0.2239 C   0  0  0  0  0  0  0  0  0  0  0  0
   -6.6439   -0.1989   -0.0369 C   0  0  0  0  0  0  0  0  0  0  0  0
    0.5250   -1.9197   -1.3942 H   0  0  0  0  0  0  0  0  0  0  0  0
    0.6019   -2.4247    0.3480 H   0  0  0  0  0  0  0  0  0  0  0  0
    3.4047   -2.5119   -0.7470 H   0  0  0  0  0  0  0  0  0  0  0  0
    2.9801    2.2941    0.6661 H   0  0  0  0  0  0  0  0  0  0  0  0
   -0.1037    2.6308    0.9006 H   0  0  0  0  0  0  0  0  0  0  0  0
   -2.2896   -1.8876   -0.1572 H   0  0  0  0  0  0  0  0  0  0  0  0
   -3.7381    1.4507   -0.5309 H   0  0  0  0  0  0  0  0  0  0  0  0
   -4.4101   -2.7132    0.4357 H   0  0  0  0  0  0  0  0  0  0  0  0
    7.2886   -2.1978    0.3289 H   0  0  0  0  0  0  0  0  0  0  0  0
    5.7189   -2.6656    1.0184 H   0  0  0  0  0  0  0  0  0  0  0  0
    6.4665   -1.0937    1.4525 H   0  0  0  0  0  0  0  0  0  0  0  0
    6.8243    2.6947   -0.5390 H   0  0  0  0  0  0  0  0  0  0  0  0
    5.1735    2.8665   -1.1746 H   0  0  0  0  0  0  0  0  0  0  0  0
    6.1803    1.4559   -1.6384 H   0  0  0  0  0  0  0  0  0  0  0  0
   -6.8448   -2.2937    0.4225 H   0  0  0  0  0  0  0  0  0  0  0  0
   -7.7145   -0.0171   -0.0418 H   0  0  0  0  0  0  0  0  0  0  0  0
  1 22  1  0  0  0  0
  2 15  1  0  0  0  0
  2 20  1  0  0  0  0
  3 16  1  0  0  0  0
  3 21  1  0  0  0  0
  4  5  1  0  0  0  0
  4 10  1  0  0  0  0
  4 29  1  0  0  0  0
  5 12  2  0  0  0  0
  6 12  1  0  0  0  0
  6 17  1  0  0  0  0
  6 30  1  0  0  0  0
  7  8  1  0  0  0  0
  7  9  1  0  0  0  0
  7 25  1  0  0  0  0
  7 26  1  0  0  0  0
  8 10  2  0  0  0  0
  8 12  1  0  0  0  0
  9 11  1  0  0  0  0
  9 13  2  0  0  0  0
 10 11  1  0  0  0  0
 11 14  2  0  0  0  0
 13 15  1  0  0  0  0
 13 27  1  0  0  0  0
 14 16  1  0  0  0  0
 14 28  1  0  0  0  0
 15 16  2  0  0  0  0
 17 18  2  0  0  0  0
 17 19  1  0  0  0  0
 18 22  1  0  0  0  0
 18 31  1  0  0  0  0
 19 23  2  0  0  0  0
 19 32  1  0  0  0  0
 20 33  1  0  0  0  0
 20 34  1  0  0  0  0
 20 35  1  0  0  0  0
 21 36  1  0  0  0  0
 21 37  1  0  0  0  0
 21 38  1  0  0  0  0
 22 24  2  0  0  0  0
 23 24  1  0  0  0  0
 23 39  1  0  0  0  0
 24 40  1  0  0  0  0
M  END
> <PUBCHEM_COMPOUND_CID>
9797370

> <PUBCHEM_CONFORMER_RMSD>
0.8

> <PUBCHEM_CONFORMER_DIVERSEORDER>
1
11
18
12
5
9
6
7
3
13
16
15
14
10
2
17
20
4
8
21
19
22

> <PUBCHEM_MMFF94_PARTIAL_CHARGES>
32
1 -0.19
10 -0.2
11 0.05
12 0.37
13 -0.15
14 -0.15
15 0.08
16 0.08
17 0.1
18 -0.15
19 -0.15
2 -0.36
20 0.28
21 0.28
22 0.19
23 -0.15
24 -0.15
27 0.15
28 0.15
29 0.27
3 -0.36
30 0.4
31 0.15
32 0.15
39 0.15
4 0.3
40 0.15
5 -0.71
6 -0.58
7 0.32
8 -0.18
9 -0.14

> <PUBCHEM_EFFECTIVE_ROTOR_COUNT>
4.2

> <PUBCHEM_PHARMACOPHORE_FEATURES>
9
1 2 acceptor
1 3 acceptor
1 4 donor
1 6 donor
3 5 6 12 cation
5 4 5 8 10 12 rings
5 7 8 9 10 11 rings
6 17 18 19 22 23 24 rings
6 9 11 13 14 15 16 rings

> <PUBCHEM_HEAVY_ATOM_COUNT>
24

> <PUBCHEM_ATOM_DEF_STEREO_COUNT>
0

> <PUBCHEM_ATOM_UDEF_STEREO_COUNT>
0

> <PUBCHEM_BOND_DEF_STEREO_COUNT>
0

> <PUBCHEM_BOND_UDEF_STEREO_COUNT>
0

> <PUBCHEM_ISOTOPIC_ATOM_COUNT>
0

> <PUBCHEM_COMPONENT_COUNT>
1

> <PUBCHEM_CACTVS_TAUTO_COUNT>
5

> <PUBCHEM_CONFORMER_ID>
00957EFA00000001

> <PUBCHEM_MMFF94_ENERGY>
106.6104

> <PUBCHEM_FEATURE_SELFOVERLAP>
46.014

> <PUBCHEM_SHAPE_FINGERPRINT>
10835480 77 18411414016742106629
10906281 52 18201176398341842483
11578080 2 14058158383869841324
11719270 70 18201716228560779758
12166972 35 18113340803950645676
12236239 1 18335421274518806119
12516196 113 17704070707371408153
12616971 3 18131339822213661862
13533116 47 18410572886452479786
13862211 1 18272367585543624199
14251752 14 18335980887636007827
14251764 18 18130792278861643411
14933364 13 18408324393293925461
15183329 4 18341054038249217865
15196674 1 18412545422443127099
15788980 27 18186805785804176243
17844677 252 18410017645770195141
18335252 98 18263087758955118114
200 152 17917992776382557041
20028762 73 18202002101742510582
20281389 69 18187364320515574981
21236236 1 18059297561488912681
21267235 1 18272094868743604478
21279426 13 18411983516430542007
21315763 28 18409446981860214543
21792934 111 18201427061181130128
220451 1 17632580482845360743
22224240 67 15985094202969143390
23035841 295 18409730647333627755
23081809 10 18272650164490038055
23402539 116 18409726257755692975
23522609 53 18055946331119405009
23536379 177 18333449841780670859
23559900 14 18341887545942683161
23569943 247 16662035933667600450
29717793 49 17917997140158987726
3004659 81 18334576824341252802
335352 9 18413387631149185142
34797466 226 15554451838024109688
350125 39 18342175557669590432
4073 2 18113904896328554891
4214541 1 18410855452424482985
4325135 7 18337112357814935284
4340502 62 17167577207006515458
4463277 17 18412826897599081873
465052 167 18272092699442300190
5104073 3 18201438047960388816
5283173 99 18336262345607461817
542803 24 15647053759381639167
59755656 215 18339646642028627966
59755656 520 17603584132333880459

> <PUBCHEM_SHAPE_MULTIPOLES>
459.95
18.2
2.05
0.73
8.6
0.22
0.01
-0.04
1.2
-1.18
0.08
-0.29
0.05
0.08

> <PUBCHEM_SHAPE_SELFOVERLAP>
1027.245

> <PUBCHEM_SHAPE_VOLUME>
248.4

> <PUBCHEM_COORDINATE_TYPE>
2
5
10

$$$$
