24905183
  -OEChem-10052115153D

 44 47  0     0  0  0  0  0  0999 V2000
    4.2150    1.1139   -1.6397 O   0  0  0  0  0  0  0  0  0  0  0  0
   -2.1642    0.1122   -0.0428 N   0  0  0  0  0  0  0  0  0  0  0  0
   -1.0363    0.8282    0.1211 N   0  0  0  0  0  0  0  0  0  0  0  0
   -2.8852   -2.1929   -0.2121 N   0  0  0  0  0  0  0  0  0  0  0  0
   -1.0079   -3.7405   -0.0350 N   0  0  0  0  0  0  0  0  0  0  0  0
    1.2434   -3.0079    0.2689 N   0  0  0  0  0  0  0  0  0  0  0  0
    5.2972    1.4272    0.9384 N   0  0  0  0  0  0  0  0  0  0  0  0
   -3.4888    0.8288   -0.1806 C   0  0  0  0  0  0  0  0  0  0  0  0
   -3.5739    1.7909   -1.3840 C   0  0  0  0  0  0  0  0  0  0  0  0
   -3.8315    1.6783    1.0561 C   0  0  0  0  0  0  0  0  0  0  0  0
   -3.8035    3.1767   -0.7914 C   0  0  0  0  0  0  0  0  0  0  0  0
   -4.5518    2.8972    0.4999 C   0  0  0  0  0  0  0  0  0  0  0  0
   -1.9565   -1.2349   -0.0643 C   0  0  0  0  0  0  0  0  0  0  0  0
   -0.5937   -1.4138    0.0971 C   0  0  0  0  0  0  0  0  0  0  0  0
   -0.0834   -0.1067    0.2057 C   0  0  0  0  0  0  0  0  0  0  0  0
    1.2911    0.2859    0.3884 C   0  0  0  0  0  0  0  0  0  0  0  0
   -0.1249   -2.7232    0.1092 C   0  0  0  0  0  0  0  0  0  0  0  0
   -2.3146   -3.4167   -0.1846 C   0  0  0  0  0  0  0  0  0  0  0  0
    2.1045    0.5169   -0.7210 C   0  0  0  0  0  0  0  0  0  0  0  0
    1.8083    0.4337    1.6754 C   0  0  0  0  0  0  0  0  0  0  0  0
    3.4353    0.8958   -0.5433 C   0  0  0  0  0  0  0  0  0  0  0  0
    3.1388    0.8125    1.8532 C   0  0  0  0  0  0  0  0  0  0  0  0
    3.9523    1.0437    0.7439 C   0  0  0  0  0  0  0  0  0  0  0  0
    4.9302   -0.0053   -2.1584 C   0  0  0  0  0  0  0  0  0  0  0  0
   -4.2343    0.0339   -0.3046 H   0  0  0  0  0  0  0  0  0  0  0  0
   -4.4362    1.5142   -2.0029 H   0  0  0  0  0  0  0  0  0  0  0  0
   -2.6886    1.7677   -2.0273 H   0  0  0  0  0  0  0  0  0  0  0  0
   -2.9313    1.9954    1.5957 H   0  0  0  0  0  0  0  0  0  0  0  0
   -4.4575    1.1259    1.7643 H   0  0  0  0  0  0  0  0  0  0  0  0
   -2.8411    3.6553   -0.5745 H   0  0  0  0  0  0  0  0  0  0  0  0
   -4.3642    3.8288   -1.4669 H   0  0  0  0  0  0  0  0  0  0  0  0
   -5.6004    2.6562    0.2892 H   0  0  0  0  0  0  0  0  0  0  0  0
   -4.5254    3.7456    1.1895 H   0  0  0  0  0  0  0  0  0  0  0  0
   -2.9941   -4.2547   -0.2976 H   0  0  0  0  0  0  0  0  0  0  0  0
    1.7093    0.4035   -1.7285 H   0  0  0  0  0  0  0  0  0  0  0  0
    1.1875    0.2566    2.5505 H   0  0  0  0  0  0  0  0  0  0  0  0
    1.9247   -2.2712    0.3779 H   0  0  0  0  0  0  0  0  0  0  0  0
    1.5417   -3.9741    0.2719 H   0  0  0  0  0  0  0  0  0  0  0  0
    3.5295    0.9239    2.8614 H   0  0  0  0  0  0  0  0  0  0  0  0
    5.6635    1.5347    1.8748 H   0  0  0  0  0  0  0  0  0  0  0  0
    5.8895    1.6115    0.1397 H   0  0  0  0  0  0  0  0  0  0  0  0
    5.5298    0.3350   -3.0071 H   0  0  0  0  0  0  0  0  0  0  0  0
    4.2340   -0.7742   -2.5082 H   0  0  0  0  0  0  0  0  0  0  0  0
    5.6013   -0.4241   -1.4019 H   0  0  0  0  0  0  0  0  0  0  0  0
  1 21  1  0  0  0  0
  1 24  1  0  0  0  0
  2  3  1  0  0  0  0
  2  8  1  0  0  0  0
  2 13  1  0  0  0  0
  3 15  2  0  0  0  0
  4 13  2  0  0  0  0
  4 18  1  0  0  0  0
  5 17  1  0  0  0  0
  5 18  2  0  0  0  0
  6 17  1  0  0  0  0
  6 37  1  0  0  0  0
  6 38  1  0  0  0  0
  7 23  1  0  0  0  0
  7 40  1  0  0  0  0
  7 41  1  0  0  0  0
  8  9  1  0  0  0  0
  8 10  1  0  0  0  0
  8 25  1  0  0  0  0
  9 11  1  0  0  0  0
  9 26  1  0  0  0  0
  9 27  1  0  0  0  0
 10 12  1  0  0  0  0
 10 28  1  0  0  0  0
 10 29  1  0  0  0  0
 11 12  1  0  0  0  0
 11 30  1  0  0  0  0
 11 31  1  0  0  0  0
 12 32  1  0  0  0  0
 12 33  1  0  0  0  0
 13 14  1  0  0  0  0
 14 15  1  0  0  0  0
 14 17  2  0  0  0  0
 15 16  1  0  0  0  0
 16 19  2  0  0  0  0
 16 20  1  0  0  0  0
 18 34  1  0  0  0  0
 19 21  1  0  0  0  0
 19 35  1  0  0  0  0
 20 22  2  0  0  0  0
 20 36  1  0  0  0  0
 21 23  2  0  0  0  0
 22 23  1  0  0  0  0
 22 39  1  0  0  0  0
 24 42  1  0  0  0  0
 24 43  1  0  0  0  0
 24 44  1  0  0  0  0
M  END
> <PUBCHEM_COMPOUND_CID>
24905183

> <PUBCHEM_CONFORMER_RMSD>
0.8

> <PUBCHEM_CONFORMER_DIVERSEORDER>
1
3
9
12
14
11
7
8
6
4
5
2
10
13

> <PUBCHEM_MMFF94_PARTIAL_CHARGES>
27
1 -0.36
13 0.11
15 0.23
16 0.05
17 0.41
18 0.47
19 -0.15
2 0.31
20 -0.15
21 0.08
22 -0.15
23 0.1
24 0.28
3 -0.71
34 0.15
35 0.15
36 0.15
37 0.4
38 0.4
39 0.15
4 -0.57
40 0.4
41 0.4
5 -0.62
6 -0.9
7 -0.9
8 0.26

> <PUBCHEM_EFFECTIVE_ROTOR_COUNT>
4

> <PUBCHEM_PHARMACOPHORE_FEATURES>
12
1 1 acceptor
1 3 acceptor
1 6 cation
1 6 donor
1 7 cation
1 7 donor
3 2 4 13 cation
3 4 5 18 cation
5 2 3 13 14 15 rings
5 8 9 10 11 12 rings
6 16 19 20 21 22 23 rings
6 4 5 13 14 17 18 rings

> <PUBCHEM_HEAVY_ATOM_COUNT>
24

> <PUBCHEM_ATOM_DEF_STEREO_COUNT>
0

> <PUBCHEM_ATOM_UDEF_STEREO_COUNT>
0

> <PUBCHEM_BOND_DEF_STEREO_COUNT>
0

> <PUBCHEM_BOND_UDEF_STEREO_COUNT>
0

> <PUBCHEM_ISOTOPIC_ATOM_COUNT>
0

> <PUBCHEM_COMPONENT_COUNT>
1

> <PUBCHEM_CACTVS_TAUTO_COUNT>
9

> <PUBCHEM_CONFORMER_ID>
017C05DF00000001

> <PUBCHEM_MMFF94_ENERGY>
81.4722

> <PUBCHEM_FEATURE_SELFOVERLAP>
61.176

> <PUBCHEM_SHAPE_FINGERPRINT>
10165383 225 18268448875021507065
10319926 262 18126542713665255248
10411042 1 17617934077225336187
105312 117 18410292493016340933
11582403 64 16481851382732918962
11725454 13 16913647199668104296
11796584 16 18341901775670358142
12107183 9 18263626391552471600
12173636 292 18410003360355222847
12236239 1 17532355651593210282
12390115 104 18343030960794594049
12422481 6 17753304519033968586
12788726 201 17973730464894472866
12895836 83 18261691332434066412
13140716 1 18265891350919663147
13544592 145 18272942596360922052
13617811 41 18191587673437548855
13878862 14 17472406661675841989
13965767 371 18042391457308930820
14178342 30 18264755709757655994
14341114 328 16733278871384075905
14508225 48 17765415931687963159
14713325 29 18189070822591361203
15021287 119 17168413901412219384
15842332 3 17749939068370342530
15961568 22 17474094883805904752
16752209 62 18265042707703859754
16988056 13 16821908038303521509
18186145 218 18131354102579149992
18785283 64 17974290919983325267
19784866 34 18270396075733584489
20510252 161 18126842918292450299
20567600 70 10302654269904097629
20645477 70 16558760018226305780
20693207 138 17772210827653138364
20739085 24 16831787150822037075
21033650 10 18189630491632639552
21065201 7 18341614875616910106
2255824 54 17836640830372406575
22907989 373 18192423293668367351
23366157 5 17899408693422113315
23557571 272 18200311168748702760
23559900 14 18202008729303464964
283562 15 18267010842687937579
3091708 16 9772806252735792459
312425 83 18118431611933902780
350125 39 18339084796361712987
3729539 64 17908165191067025462
38570 142 17558287444472304329
458136 41 18195252113969945977
469060 322 18336836389893562217
474 4 18124301715351193313
5048184 11 18409446960216624985
5252454 2 18340491054400678041
57527295 17 17489310745943411750
59755656 520 17844553061921595705
633830 44 17917425385169889553
7399639 24 17195434639850758824
7808743 9 18408604798766387192
81228 2 18123183778160938107
84936 182 17984972696869557337
9862522 239 17968082085058612341

> <PUBCHEM_SHAPE_MULTIPOLES>
458.15
9.66
3.95
1.45
4.67
3.71
0.19
-9.18
1.71
-4.69
0.15
1.81
-0.74
0.35

> <PUBCHEM_SHAPE_SELFOVERLAP>
1006.626

> <PUBCHEM_SHAPE_VOLUME>
248.3

> <PUBCHEM_COORDINATE_TYPE>
2
5
10

$$$$
