46945066
  -OEChem-10052115183D

 77 80  0     0  0  0  0  0  0999 V2000
   -0.5923   -4.9402    0.4842 O   0  0  0  0  0  0  0  0  0  0  0  0
    1.6664    3.2346   -0.4708 O   0  0  0  0  0  0  0  0  0  0  0  0
    3.5085   -0.6319    0.2606 N   0  0  0  0  0  0  0  0  0  0  0  0
    4.7850   -0.8090   -0.1207 N   0  0  0  0  0  0  0  0  0  0  0  0
   -4.6469   -3.3239   -0.9955 N   0  0  0  0  0  0  0  0  0  0  0  0
    1.7033    1.0272    0.3000 N   0  0  0  0  0  0  0  0  0  0  0  0
   -0.9766   -2.8916   -0.5319 N   0  0  0  0  0  0  0  0  0  0  0  0
   -0.2229    2.2730    0.5240 N   0  0  0  0  0  0  0  0  0  0  0  0
    6.4614    0.5836   -1.1963 C   0  0  0  0  0  0  0  0  0  0  0  0
    5.1101    0.3733   -0.6501 C   0  0  0  0  0  0  0  0  0  0  0  0
    7.2130    1.7477   -0.4644 C   0  0  0  0  0  0  0  0  0  0  0  0
    6.4259    0.9522   -2.7191 C   0  0  0  0  0  0  0  0  0  0  0  0
    7.4412   -0.6437   -1.1054 C   0  0  0  0  0  0  0  0  0  0  0  0
    4.0496    1.2982   -0.6071 C   0  0  0  0  0  0  0  0  0  0  0  0
    3.0206    0.6131   -0.0086 C   0  0  0  0  0  0  0  0  0  0  0  0
    2.8185   -1.6825    0.8681 C   0  0  0  0  0  0  0  0  0  0  0  0
   -3.4134   -2.9731   -0.3034 C   0  0  0  0  0  0  0  0  0  0  0  0
   -2.2100   -3.2593   -1.1896 C   0  0  0  0  0  0  0  0  0  0  0  0
    1.6597   -2.1887    0.2792 C   0  0  0  0  0  0  0  0  0  0  0  0
   -5.7356   -3.5300   -0.0383 C   0  0  0  0  0  0  0  0  0  0  0  0
   -5.0107   -2.2849   -1.9610 C   0  0  0  0  0  0  0  0  0  0  0  0
    0.9706   -3.2389    0.8857 C   0  0  0  0  0  0  0  0  0  0  0  0
    3.2882   -2.2267    2.0635 C   0  0  0  0  0  0  0  0  0  0  0  0
   -0.2381   -3.7669    0.2727 C   0  0  0  0  0  0  0  0  0  0  0  0
    1.4404   -3.7833    2.0810 C   0  0  0  0  0  0  0  0  0  0  0  0
    2.5994   -3.2773    2.6698 C   0  0  0  0  0  0  0  0  0  0  0  0
    1.1120    2.2779    0.0605 C   0  0  0  0  0  0  0  0  0  0  0  0
   -6.0403   -2.2548    0.7294 C   0  0  0  0  0  0  0  0  0  0  0  0
   -6.2587   -2.6694   -2.7373 C   0  0  0  0  0  0  0  0  0  0  0  0
   -1.1634    3.3096    0.4813 C   0  0  0  0  0  0  0  0  0  0  0  0
   -2.5410    3.0553    0.3817 C   0  0  0  0  0  0  0  0  0  0  0  0
   -3.4446    4.1438    0.3424 C   0  0  0  0  0  0  0  0  0  0  0  0
   -0.6837    4.6183    0.5411 C   0  0  0  0  0  0  0  0  0  0  0  0
   -3.0415    1.7446    0.3204 C   0  0  0  0  0  0  0  0  0  0  0  0
   -2.9441    5.4545    0.4038 C   0  0  0  0  0  0  0  0  0  0  0  0
   -1.5724    5.6887    0.5025 C   0  0  0  0  0  0  0  0  0  0  0  0
   -4.8223    3.8894    0.2429 C   0  0  0  0  0  0  0  0  0  0  0  0
   -4.4134    1.5103    0.2216 C   0  0  0  0  0  0  0  0  0  0  0  0
   -5.3019    2.5807    0.1829 C   0  0  0  0  0  0  0  0  0  0  0  0
    8.2173    1.9007   -0.8753 H   0  0  0  0  0  0  0  0  0  0  0  0
    7.3118    1.5322    0.6059 H   0  0  0  0  0  0  0  0  0  0  0  0
    6.6667    2.6930   -0.5622 H   0  0  0  0  0  0  0  0  0  0  0  0
    5.8545    1.8720   -2.8890 H   0  0  0  0  0  0  0  0  0  0  0  0
    5.9481    0.1543   -3.2995 H   0  0  0  0  0  0  0  0  0  0  0  0
    7.4337    1.1087   -3.1199 H   0  0  0  0  0  0  0  0  0  0  0  0
    7.0369   -1.5059   -1.6485 H   0  0  0  0  0  0  0  0  0  0  0  0
    7.5903   -0.9466   -0.0625 H   0  0  0  0  0  0  0  0  0  0  0  0
    8.4238   -0.4096   -1.5308 H   0  0  0  0  0  0  0  0  0  0  0  0
    4.0437    2.3173   -0.9649 H   0  0  0  0  0  0  0  0  0  0  0  0
   -3.3911   -1.9226    0.0147 H   0  0  0  0  0  0  0  0  0  0  0  0
   -3.2979   -3.5757    0.6079 H   0  0  0  0  0  0  0  0  0  0  0  0
    1.1264    0.3348    0.7679 H   0  0  0  0  0  0  0  0  0  0  0  0
   -2.1686   -4.3225   -1.4530 H   0  0  0  0  0  0  0  0  0  0  0  0
   -2.2323   -2.6825   -2.1184 H   0  0  0  0  0  0  0  0  0  0  0  0
    1.3366   -1.7783   -0.6743 H   0  0  0  0  0  0  0  0  0  0  0  0
   -5.4487   -4.3165    0.6720 H   0  0  0  0  0  0  0  0  0  0  0  0
   -6.6396   -3.9179   -0.5195 H   0  0  0  0  0  0  0  0  0  0  0  0
   -4.2146   -2.1907   -2.7081 H   0  0  0  0  0  0  0  0  0  0  0  0
   -5.1220   -1.2866   -1.5251 H   0  0  0  0  0  0  0  0  0  0  0  0
    4.1873   -1.8417    2.5387 H   0  0  0  0  0  0  0  0  0  0  0  0
   -0.6941   -1.9214   -0.6211 H   0  0  0  0  0  0  0  0  0  0  0  0
    0.9158   -4.5987    2.5722 H   0  0  0  0  0  0  0  0  0  0  0  0
    2.9641   -3.6997    3.6015 H   0  0  0  0  0  0  0  0  0  0  0  0
   -6.7981   -2.4808    1.4897 H   0  0  0  0  0  0  0  0  0  0  0  0
   -5.1809   -1.8541    1.2738 H   0  0  0  0  0  0  0  0  0  0  0  0
   -6.4714   -1.4665    0.1065 H   0  0  0  0  0  0  0  0  0  0  0  0
   -6.3726   -2.0038   -3.6005 H   0  0  0  0  0  0  0  0  0  0  0  0
   -7.1718   -2.5695   -2.1429 H   0  0  0  0  0  0  0  0  0  0  0  0
   -6.1969   -3.6929   -3.1231 H   0  0  0  0  0  0  0  0  0  0  0  0
   -0.5748    1.3512    0.7580 H   0  0  0  0  0  0  0  0  0  0  0  0
    0.3698    4.8499    0.6606 H   0  0  0  0  0  0  0  0  0  0  0  0
   -2.4012    0.8678    0.3352 H   0  0  0  0  0  0  0  0  0  0  0  0
   -3.6205    6.3063    0.3774 H   0  0  0  0  0  0  0  0  0  0  0  0
   -1.1996    6.7074    0.5589 H   0  0  0  0  0  0  0  0  0  0  0  0
   -5.5352    4.7107    0.2111 H   0  0  0  0  0  0  0  0  0  0  0  0
   -4.7875    0.4934    0.1743 H   0  0  0  0  0  0  0  0  0  0  0  0
   -6.3697    2.3973    0.1058 H   0  0  0  0  0  0  0  0  0  0  0  0
  1 24  2  0  0  0  0
  2 27  2  0  0  0  0
  3  4  1  0  0  0  0
  3 15  1  0  0  0  0
  3 16  1  0  0  0  0
  4 10  2  0  0  0  0
  5 17  1  0  0  0  0
  5 20  1  0  0  0  0
  5 21  1  0  0  0  0
  6 15  1  0  0  0  0
  6 27  1  0  0  0  0
  6 52  1  0  0  0  0
  7 18  1  0  0  0  0
  7 24  1  0  0  0  0
  7 61  1  0  0  0  0
  8 27  1  0  0  0  0
  8 30  1  0  0  0  0
  8 70  1  0  0  0  0
  9 10  1  0  0  0  0
  9 11  1  0  0  0  0
  9 12  1  0  0  0  0
  9 13  1  0  0  0  0
 10 14  1  0  0  0  0
 11 40  1  0  0  0  0
 11 41  1  0  0  0  0
 11 42  1  0  0  0  0
 12 43  1  0  0  0  0
 12 44  1  0  0  0  0
 12 45  1  0  0  0  0
 13 46  1  0  0  0  0
 13 47  1  0  0  0  0
 13 48  1  0  0  0  0
 14 15  2  0  0  0  0
 14 49  1  0  0  0  0
 16 19  1  0  0  0  0
 16 23  2  0  0  0  0
 17 18  1  0  0  0  0
 17 50  1  0  0  0  0
 17 51  1  0  0  0  0
 18 53  1  0  0  0  0
 18 54  1  0  0  0  0
 19 22  2  0  0  0  0
 19 55  1  0  0  0  0
 20 28  1  0  0  0  0
 20 56  1  0  0  0  0
 20 57  1  0  0  0  0
 21 29  1  0  0  0  0
 21 58  1  0  0  0  0
 21 59  1  0  0  0  0
 22 24  1  0  0  0  0
 22 25  1  0  0  0  0
 23 26  1  0  0  0  0
 23 60  1  0  0  0  0
 25 26  2  0  0  0  0
 25 62  1  0  0  0  0
 26 63  1  0  0  0  0
 28 64  1  0  0  0  0
 28 65  1  0  0  0  0
 28 66  1  0  0  0  0
 29 67  1  0  0  0  0
 29 68  1  0  0  0  0
 29 69  1  0  0  0  0
 30 31  1  0  0  0  0
 30 33  2  0  0  0  0
 31 32  1  0  0  0  0
 31 34  2  0  0  0  0
 32 35  1  0  0  0  0
 32 37  2  0  0  0  0
 33 36  1  0  0  0  0
 33 71  1  0  0  0  0
 34 38  1  0  0  0  0
 34 72  1  0  0  0  0
 35 36  2  0  0  0  0
 35 73  1  0  0  0  0
 36 74  1  0  0  0  0
 37 39  1  0  0  0  0
 37 75  1  0  0  0  0
 38 39  2  0  0  0  0
 38 76  1  0  0  0  0
 39 77  1  0  0  0  0
M  END
> <PUBCHEM_COMPOUND_CID>
46945066

> <PUBCHEM_CONFORMER_RMSD>
1.2

> <PUBCHEM_CONFORMER_DIVERSEORDER>
1
114
115
4
65
41
99
56
95
25
107
105
2
112
72
30
24
37
42
57
36
44
75
27
74
109
83
29
116
106
58
50
6
48
84
63
18
53
62
61
46
104
110
12
28
93
47
64
94
51
10
71
60
23
13
17
45
7
5
90
100
49
34
11
78
79
73
77
3
101
14
96
15
108
76
80
20
69
40
39
35
97
22
113
85
43
92
31
19
103
87
8
89
26
98
16
67
59
86
111
66
68
82
9
88
33
52
21
55
102
32
38
70
91
81
54

> <PUBCHEM_MMFF94_PARTIAL_CHARGES>
47
1 -0.57
10 0.11
14 -0.15
15 -0.09
16 -0.02
17 0.27
18 0.3
19 -0.15
2 -0.57
20 0.27
21 0.27
22 0.09
23 -0.15
24 0.54
25 -0.15
26 -0.15
27 0.69
3 0.59
30 0.12
33 -0.15
34 -0.15
35 -0.15
36 -0.15
37 -0.15
38 -0.15
39 -0.15
4 -0.71
49 0.15
5 -0.81
52 0.37
55 0.15
6 -0.49
60 0.15
61 0.37
62 0.15
63 0.15
7 -0.73
70 0.37
71 0.15
72 0.15
73 0.15
74 0.15
75 0.15
76 0.15
77 0.15
8 -0.55
9 0.18

> <PUBCHEM_EFFECTIVE_ROTOR_COUNT>
13

> <PUBCHEM_PHARMACOPHORE_FEATURES>
12
1 1 acceptor
1 2 acceptor
1 4 acceptor
1 5 cation
1 6 donor
1 7 donor
1 8 donor
4 9 11 12 13 hydrophobe
5 3 4 10 14 15 rings
6 16 19 22 23 25 26 rings
6 30 31 32 33 35 36 rings
6 31 32 34 37 38 39 rings

> <PUBCHEM_HEAVY_ATOM_COUNT>
39

> <PUBCHEM_ATOM_DEF_STEREO_COUNT>
0

> <PUBCHEM_ATOM_UDEF_STEREO_COUNT>
0

> <PUBCHEM_BOND_DEF_STEREO_COUNT>
0

> <PUBCHEM_BOND_UDEF_STEREO_COUNT>
0

> <PUBCHEM_ISOTOPIC_ATOM_COUNT>
0

> <PUBCHEM_COMPONENT_COUNT>
1

> <PUBCHEM_CACTVS_TAUTO_COUNT>
14

> <PUBCHEM_CONFORMER_ID>
02CC532A00000001

> <PUBCHEM_MMFF94_ENERGY>
124.5231

> <PUBCHEM_FEATURE_SELFOVERLAP>
60.972

> <PUBCHEM_SHAPE_FINGERPRINT>
10190206 1 18335422404770477654
10462674 296 17842268452769035591
10675989 125 17835225028926581449
11135926 11 18045504119056458132
11204353 107 18410012130489518121
11374522 363 17326326628571244693
12788726 201 18410848893197655902
13165053 182 16956500837850982532
15250474 111 18120929504040239761
15274700 256 18339923836151779468
15320467 1 17546444939778519593
15351339 4 18261658372338078571
15400415 2 17907862794914816344
15781502 409 18196949768122744990
15927050 60 18196658397377879422
18365409 1 18336281110398589532
19311894 1 18267872868130421214
21133410 62 17967808384416176115
4066623 53 18198621236593492740
437795 70 18200328730722263878
6036956 94 18120651337074570445
6176135 31 17547848560834757193
6608658 132 18270951445228257015
9980921 221 18191047740772536302

> <PUBCHEM_SHAPE_MULTIPOLES>
760.98
16.41
9.17
1.81
12.26
4.52
-0.42
-1.23
-9.22
-13.56
2.29
0.93
-2.12
-5.66

> <PUBCHEM_SHAPE_SELFOVERLAP>
1624.589

> <PUBCHEM_SHAPE_VOLUME>
423.2

> <PUBCHEM_COORDINATE_TYPE>
2
5
10

$$$$
