49830788
  -OEChem-10062121553D

 34 35  0     1  0  0  0  0  0999 V2000
   -0.5905   -1.2735   -0.9410 O   0  0  0  0  0  0  0  0  0  0  0  0
   -2.4870    0.4239    0.6042 O   0  0  0  0  0  0  0  0  0  0  0  0
    2.7525    1.7161    0.1489 N   0  0  0  0  0  0  0  0  0  0  0  0
    1.8660    2.4026   -0.5910 N   0  0  0  0  0  0  0  0  0  0  0  0
   -0.1864    1.7234   -1.6129 N   0  0  0  0  0  0  0  0  0  0  0  0
   -1.6770   -1.7110   -0.1323 C   0  0  1  0  0  0  0  0  0  0  0  0
    1.2130    0.2263   -0.3188 C   0  0  0  0  0  0  0  0  0  0  0  0
    0.5969   -1.0361   -0.3028 C   0  0  0  0  0  0  0  0  0  0  0  0
   -2.7959   -0.6825   -0.2369 C   0  0  0  0  0  0  0  0  0  0  0  0
    2.4193    0.4037    0.3493 C   0  0  0  0  0  0  0  0  0  0  0  0
   -2.1315   -3.0792   -0.6174 C   0  0  0  0  0  0  0  0  0  0  0  0
    0.9309    1.4930   -0.8739 C   0  0  0  0  0  0  0  0  0  0  0  0
    1.2249   -2.0784    0.3905 C   0  0  0  0  0  0  0  0  0  0  0  0
    3.0620   -0.6217    1.0464 C   0  0  0  0  0  0  0  0  0  0  0  0
    2.4363   -1.8726    1.0531 C   0  0  0  0  0  0  0  0  0  0  0  0
   -3.5086    1.4096    0.5620 C   0  0  0  0  0  0  0  0  0  0  0  0
   -3.1251    2.5566    1.4725 C   0  0  0  0  0  0  0  0  0  0  0  0
   -1.3815   -1.7950    0.9227 H   0  0  0  0  0  0  0  0  0  0  0  0
   -3.7431   -1.1194    0.1006 H   0  0  0  0  0  0  0  0  0  0  0  0
   -2.9078   -0.3337   -1.2704 H   0  0  0  0  0  0  0  0  0  0  0  0
   -2.4443   -3.0363   -1.6667 H   0  0  0  0  0  0  0  0  0  0  0  0
   -1.3128   -3.8041   -0.5651 H   0  0  0  0  0  0  0  0  0  0  0  0
   -2.9664   -3.4571   -0.0194 H   0  0  0  0  0  0  0  0  0  0  0  0
    0.7825   -3.0709    0.4150 H   0  0  0  0  0  0  0  0  0  0  0  0
    4.0032   -0.4601    1.5599 H   0  0  0  0  0  0  0  0  0  0  0  0
    3.5707    2.2052    0.4898 H   0  0  0  0  0  0  0  0  0  0  0  0
    2.9040   -2.6993    1.5821 H   0  0  0  0  0  0  0  0  0  0  0  0
   -3.6264    1.7773   -0.4635 H   0  0  0  0  0  0  0  0  0  0  0  0
   -4.4578    0.9760    0.8960 H   0  0  0  0  0  0  0  0  0  0  0  0
   -0.3882    2.6364   -2.0082 H   0  0  0  0  0  0  0  0  0  0  0  0
   -0.8758    1.0050   -1.8114 H   0  0  0  0  0  0  0  0  0  0  0  0
   -2.9914    2.2045    2.5008 H   0  0  0  0  0  0  0  0  0  0  0  0
   -2.1711    2.9940    1.1597 H   0  0  0  0  0  0  0  0  0  0  0  0
   -3.8913    3.3367    1.4631 H   0  0  0  0  0  0  0  0  0  0  0  0
  1  6  1  0  0  0  0
  1  8  1  0  0  0  0
  2  9  1  0  0  0  0
  2 16  1  0  0  0  0
  3  4  1  0  0  0  0
  3 10  1  0  0  0  0
  3 26  1  0  0  0  0
  4 12  2  0  0  0  0
  5 12  1  0  0  0  0
  5 30  1  0  0  0  0
  5 31  1  0  0  0  0
  6  9  1  0  0  0  0
  6 11  1  0  0  0  0
  6 18  1  0  0  0  0
  7  8  1  0  0  0  0
  7 10  2  0  0  0  0
  7 12  1  0  0  0  0
  8 13  2  0  0  0  0
  9 19  1  0  0  0  0
  9 20  1  0  0  0  0
 10 14  1  0  0  0  0
 11 21  1  0  0  0  0
 11 22  1  0  0  0  0
 11 23  1  0  0  0  0
 13 15  1  0  0  0  0
 13 24  1  0  0  0  0
 14 15  2  0  0  0  0
 14 25  1  0  0  0  0
 15 27  1  0  0  0  0
 16 17  1  0  0  0  0
 16 28  1  0  0  0  0
 16 29  1  0  0  0  0
 17 32  1  0  0  0  0
 17 33  1  0  0  0  0
 17 34  1  0  0  0  0
M  END
> <PUBCHEM_COMPOUND_CID>
49830788

> <PUBCHEM_CONFORMER_RMSD>
0.6

> <PUBCHEM_CONFORMER_DIVERSEORDER>
1
13
90
22
130
98
71
26
63
23
6
93
118
14
117
65
129
53
38
7
127
50
66
103
81
110
25
29
21
57
123
19
61
104
40
12
56
37
121
67
9
102
109
91
100
33
64
47
72
77
17
124
82
31
70
92
51
60
28
87
4
2
74
128
46
58
106
49
96
88
41
97
27
120
111
3
79
68
52
16
112
119
75
20
15
107
122
42
44
36
35
84
43
113
18
24
69
85
73
55
8
45
11
34
32
39
59
115
101
95
5
108
80
76
99
83
62
105
86
125
10
48
78
54
126
89
114
116
94
30

> <PUBCHEM_MMFF94_PARTIAL_CHARGES>
20
1 -0.36
10 -0.15
12 0.37
13 -0.15
14 -0.15
15 -0.15
16 0.28
2 -0.56
24 0.15
25 0.15
26 0.27
27 0.15
3 0.3
30 0.4
31 0.4
4 -0.71
5 -0.88
6 0.28
8 0.08
9 0.28

> <PUBCHEM_EFFECTIVE_ROTOR_COUNT>
5

> <PUBCHEM_PHARMACOPHORE_FEATURES>
7
1 1 acceptor
1 2 acceptor
1 3 donor
1 5 donor
3 4 5 12 cation
5 3 4 7 10 12 rings
6 7 8 10 13 14 15 rings

> <PUBCHEM_HEAVY_ATOM_COUNT>
17

> <PUBCHEM_ATOM_DEF_STEREO_COUNT>
0

> <PUBCHEM_ATOM_UDEF_STEREO_COUNT>
1

> <PUBCHEM_BOND_DEF_STEREO_COUNT>
0

> <PUBCHEM_BOND_UDEF_STEREO_COUNT>
0

> <PUBCHEM_ISOTOPIC_ATOM_COUNT>
0

> <PUBCHEM_COMPONENT_COUNT>
1

> <PUBCHEM_CACTVS_TAUTO_COUNT>
7

> <PUBCHEM_CONFORMER_ID>
02F85B8400000001

> <PUBCHEM_MMFF94_ENERGY>
37.7438

> <PUBCHEM_FEATURE_SELFOVERLAP>
35.612

> <PUBCHEM_SHAPE_FINGERPRINT>
10382601 240 18113345202044518752
11086676 242 17970071041310404464
12202030 40 15357690890326889267
12251169 10 18409726231764193675
14178342 30 18339625807174008170
14787075 74 16971106852733566301
14790565 3 18261682549526684580
15420108 30 17408507456541606387
15442244 35 18410568474903985554
16945 1 18262781983359382254
18981168 100 17272046166232361787
192875 21 18199449048626897853
20510252 161 17689158236995335997
20715895 44 18193831549764462437
21330990 113 17333102922869484518
21665062 11 18121229679372563977
22094290 62 18410577240842208667
23184049 59 18192993721091200675
23419403 2 17119098631040830973
23598291 2 18409448106772712382
2748010 2 17615106803501633190
6992083 37 18336260163436722491
7832392 63 18411982455394317130

> <PUBCHEM_SHAPE_MULTIPOLES>
323.17
5.42
3.33
1.19
2.55
0.47
0.02
-1.61
2.3
1.28
-0.22
0.13
-0.42
-1.74

> <PUBCHEM_SHAPE_SELFOVERLAP>
678.645

> <PUBCHEM_SHAPE_VOLUME>
186.2

> <PUBCHEM_COORDINATE_TYPE>
2
5
10

$$$$
