11751922
  -OEChem-10062121563D

 63 69  0     0  0  0  0  0  0999 V2000
    2.8382   -3.6403    0.9852 O   0  0  0  0  0  0  0  0  0  0  0  0
    0.1860    2.1390   -0.4405 N   0  0  0  0  0  0  0  0  0  0  0  0
    0.5171   -3.4964    1.0028 N   0  0  0  0  0  0  0  0  0  0  0  0
    6.0943   -1.6529   -0.5369 N   0  0  0  0  0  0  0  0  0  0  0  0
    6.2800   -0.3334   -0.3411 N   0  0  0  0  0  0  0  0  0  0  0  0
   -5.1038    0.7187    0.3083 N   0  0  0  0  0  0  0  0  0  0  0  0
   -7.0567   -0.5751    0.1711 N   0  0  0  0  0  0  0  0  0  0  0  0
   -4.9218   -1.4842   -0.4792 N   0  0  0  0  0  0  0  0  0  0  0  0
    0.8542    0.9564   -0.2067 C   0  0  0  0  0  0  0  0  0  0  0  0
    2.2402    0.6729   -0.2478 C   0  0  0  0  0  0  0  0  0  0  0  0
   -0.1194    0.0017    0.0942 C   0  0  0  0  0  0  0  0  0  0  0  0
    2.6484   -0.6815   -0.0095 C   0  0  0  0  0  0  0  0  0  0  0  0
    0.3146   -1.3003    0.3842 C   0  0  0  0  0  0  0  0  0  0  0  0
    1.6855   -1.6196    0.3437 C   0  0  0  0  0  0  0  0  0  0  0  0
    3.2674    1.7486   -0.6026 C   0  0  0  0  0  0  0  0  0  0  0  0
   -1.3962    0.6467    0.0390 C   0  0  0  0  0  0  0  0  0  0  0  0
   -1.1710    1.9801   -0.2979 C   0  0  0  0  0  0  0  0  0  0  0  0
    4.0726   -0.9271   -0.1315 C   0  0  0  0  0  0  0  0  0  0  0  0
    0.7607    3.3992   -0.8695 C   0  0  0  0  0  0  0  0  0  0  0  0
    4.6578    1.5266    0.0293 C   0  0  0  0  0  0  0  0  0  0  0  0
   -0.4956   -2.5000    0.7728 C   0  0  0  0  0  0  0  0  0  0  0  0
    5.0390    0.1047   -0.1299 C   0  0  0  0  0  0  0  0  0  0  0  0
    1.1001    4.3548    0.2881 C   0  0  0  0  0  0  0  0  0  0  0  0
    1.8057   -3.0264    0.7940 C   0  0  0  0  0  0  0  0  0  0  0  0
   -2.7264    0.2219    0.2438 C   0  0  0  0  0  0  0  0  0  0  0  0
   -2.2049    2.9125   -0.4419 C   0  0  0  0  0  0  0  0  0  0  0  0
    4.7837   -2.0487   -0.4745 C   0  0  0  0  0  0  0  0  0  0  0  0
   -3.7719    1.1420    0.1042 C   0  0  0  0  0  0  0  0  0  0  0  0
   -3.5126    2.4675   -0.2340 C   0  0  0  0  0  0  0  0  0  0  0  0
    2.0700    3.7237    1.2895 C   0  0  0  0  0  0  0  0  0  0  0  0
   -0.1848    4.7731    1.0058 C   0  0  0  0  0  0  0  0  0  0  0  0
    7.2248   -2.4957   -0.8463 C   0  0  0  0  0  0  0  0  0  0  0  0
   -5.7050   -0.4686   -0.0054 C   0  0  0  0  0  0  0  0  0  0  0  0
   -7.6171   -1.7599   -0.1489 C   0  0  0  0  0  0  0  0  0  0  0  0
   -5.5476   -2.6412   -0.7792 C   0  0  0  0  0  0  0  0  0  0  0  0
   -6.9056   -2.8387   -0.6327 C   0  0  0  0  0  0  0  0  0  0  0  0
    3.3972    1.6397   -1.6919 H   0  0  0  0  0  0  0  0  0  0  0  0
    3.0255    2.7791   -0.4881 H   0  0  0  0  0  0  0  0  0  0  0  0
    1.5696    3.2233   -1.5778 H   0  0  0  0  0  0  0  0  0  0  0  0
    0.0227    3.8925   -1.5160 H   0  0  0  0  0  0  0  0  0  0  0  0
    5.3910    2.1881   -0.4454 H   0  0  0  0  0  0  0  0  0  0  0  0
    4.6258    1.7720    1.0974 H   0  0  0  0  0  0  0  0  0  0  0  0
   -1.1511   -2.8362   -0.0345 H   0  0  0  0  0  0  0  0  0  0  0  0
   -1.0528   -2.3401    1.6992 H   0  0  0  0  0  0  0  0  0  0  0  0
    1.5621    5.2588   -0.1272 H   0  0  0  0  0  0  0  0  0  0  0  0
    0.3140   -4.4379    1.3235 H   0  0  0  0  0  0  0  0  0  0  0  0
   -2.8941   -0.8016    0.5581 H   0  0  0  0  0  0  0  0  0  0  0  0
   -2.0457    3.9325   -0.7645 H   0  0  0  0  0  0  0  0  0  0  0  0
    4.4990   -3.0660   -0.7015 H   0  0  0  0  0  0  0  0  0  0  0  0
   -4.3311    3.1738   -0.3556 H   0  0  0  0  0  0  0  0  0  0  0  0
    1.9916    4.2705    2.2403 H   0  0  0  0  0  0  0  0  0  0  0  0
    1.8610    2.6893    1.5586 H   0  0  0  0  0  0  0  0  0  0  0  0
    3.1169    3.8797    1.0179 H   0  0  0  0  0  0  0  0  0  0  0  0
   -0.6720    3.9512    1.5356 H   0  0  0  0  0  0  0  0  0  0  0  0
   -0.8799    5.2732    0.3278 H   0  0  0  0  0  0  0  0  0  0  0  0
    0.0580    5.5194    1.7733 H   0  0  0  0  0  0  0  0  0  0  0  0
    7.9449   -2.4185   -0.0279 H   0  0  0  0  0  0  0  0  0  0  0  0
    7.6672   -2.1472   -1.7828 H   0  0  0  0  0  0  0  0  0  0  0  0
    6.8909   -3.5307   -0.9518 H   0  0  0  0  0  0  0  0  0  0  0  0
   -5.7501    1.4636    0.5470 H   0  0  0  0  0  0  0  0  0  0  0  0
   -8.6899   -1.8204   -0.0004 H   0  0  0  0  0  0  0  0  0  0  0  0
   -4.9056   -3.4317   -1.1526 H   0  0  0  0  0  0  0  0  0  0  0  0
   -7.3811   -3.7778   -0.8812 H   0  0  0  0  0  0  0  0  0  0  0  0
  1 24  2  0  0  0  0
  2  9  1  0  0  0  0
  2 17  1  0  0  0  0
  2 19  1  0  0  0  0
  3 21  1  0  0  0  0
  3 24  1  0  0  0  0
  3 46  1  0  0  0  0
  4  5  1  0  0  0  0
  4 27  1  0  0  0  0
  4 32  1  0  0  0  0
  5 22  2  0  0  0  0
  6 28  1  0  0  0  0
  6 33  1  0  0  0  0
  6 60  1  0  0  0  0
  7 33  2  0  0  0  0
  7 34  1  0  0  0  0
  8 33  1  0  0  0  0
  8 35  2  0  0  0  0
  9 10  1  0  0  0  0
  9 11  2  0  0  0  0
 10 12  2  0  0  0  0
 10 15  1  0  0  0  0
 11 13  1  0  0  0  0
 11 16  1  0  0  0  0
 12 14  1  0  0  0  0
 12 18  1  0  0  0  0
 13 14  2  0  0  0  0
 13 21  1  0  0  0  0
 14 24  1  0  0  0  0
 15 20  1  0  0  0  0
 15 37  1  0  0  0  0
 15 38  1  0  0  0  0
 16 17  2  0  0  0  0
 16 25  1  0  0  0  0
 17 26  1  0  0  0  0
 18 22  1  0  0  0  0
 18 27  2  0  0  0  0
 19 23  1  0  0  0  0
 19 39  1  0  0  0  0
 19 40  1  0  0  0  0
 20 22  1  0  0  0  0
 20 41  1  0  0  0  0
 20 42  1  0  0  0  0
 21 43  1  0  0  0  0
 21 44  1  0  0  0  0
 23 30  1  0  0  0  0
 23 31  1  0  0  0  0
 23 45  1  0  0  0  0
 25 28  2  0  0  0  0
 25 47  1  0  0  0  0
 26 29  2  0  0  0  0
 26 48  1  0  0  0  0
 27 49  1  0  0  0  0
 28 29  1  0  0  0  0
 29 50  1  0  0  0  0
 30 51  1  0  0  0  0
 30 52  1  0  0  0  0
 30 53  1  0  0  0  0
 31 54  1  0  0  0  0
 31 55  1  0  0  0  0
 31 56  1  0  0  0  0
 32 57  1  0  0  0  0
 32 58  1  0  0  0  0
 32 59  1  0  0  0  0
 34 36  2  0  0  0  0
 34 61  1  0  0  0  0
 35 36  1  0  0  0  0
 35 62  1  0  0  0  0
 36 63  1  0  0  0  0
M  END
> <PUBCHEM_COMPOUND_CID>
11751922

> <PUBCHEM_CONFORMER_RMSD>
0.8

> <PUBCHEM_CONFORMER_DIVERSEORDER>
1
4
3
2

> <PUBCHEM_MMFF94_PARTIAL_CHARGES>
40
1 -0.57
10 -0.14
12 0.05
13 -0.14
14 0.09
15 0.14
17 -0.15
18 -0.05
19 0.26
2 0.05
20 0.18
21 0.44
22 0.11
24 0.54
25 -0.15
26 -0.15
27 -0.3
28 0.1
29 -0.15
3 -0.73
32 0.26
33 0.72
34 0.16
35 0.16
36 -0.15
4 0.31
46 0.37
47 0.15
48 0.15
49 0.15
5 -0.71
50 0.15
6 -0.6
60 0.4
61 0.15
62 0.15
63 0.15
7 -0.62
8 -0.62
9 -0.15

> <PUBCHEM_EFFECTIVE_ROTOR_COUNT>
4.8

> <PUBCHEM_PHARMACOPHORE_FEATURES>
15
1 1 acceptor
1 2 cation
1 3 donor
1 5 acceptor
1 6 donor
1 8 acceptor
3 23 30 31 hydrophobe
4 6 7 8 33 cation
5 2 9 11 16 17 rings
5 3 13 14 21 24 rings
5 4 5 18 22 27 rings
6 10 12 15 18 20 22 rings
6 16 17 25 26 28 29 rings
6 7 8 33 34 35 36 rings
6 9 10 11 12 13 14 rings

> <PUBCHEM_HEAVY_ATOM_COUNT>
36

> <PUBCHEM_ATOM_DEF_STEREO_COUNT>
0

> <PUBCHEM_ATOM_UDEF_STEREO_COUNT>
0

> <PUBCHEM_BOND_DEF_STEREO_COUNT>
0

> <PUBCHEM_BOND_UDEF_STEREO_COUNT>
0

> <PUBCHEM_ISOTOPIC_ATOM_COUNT>
0

> <PUBCHEM_COMPONENT_COUNT>
1

> <PUBCHEM_CACTVS_TAUTO_COUNT>
4

> <PUBCHEM_CONFORMER_ID>
00B351F200000001

> <PUBCHEM_MMFF94_ENERGY>
127.2708

> <PUBCHEM_FEATURE_SELFOVERLAP>
76.51

> <PUBCHEM_SHAPE_FINGERPRINT>
10032420 55 17822561738444297521
10190108 129 18334581256947825803
10411042 1 18412265025561528940
1100329 8 18337392771855426849
11135926 11 18335697209884874319
11227688 84 18339346466890515167
11607047 403 17052710316429240795
11963148 33 18263638472806033250
12166972 35 18113622287248278676
12645989 146 18412833469073677046
13140716 1 18121217842453622225
1361 2 18335700606312137137
14040222 275 18268454402849944398
14068700 675 18344149193889381905
14394314 77 18338240367358101497
14790565 3 18263093141251214732
14955137 171 18272652363423902181
15320467 1 18409728491455853939
15351339 4 18114173086575962307
15439362 3 18048597311374100813
15927050 60 17764589115532913900
16087824 20 18265332808383720965
16114785 44 15972136792953142457
18608769 82 18339642218802415864
18681886 176 18342452664411522635
19591789 44 18408886222276960032
19611394 137 18115885142867557355
20028762 73 18341895211968916823
20775438 99 17765133352451340599
21197605 99 18340771528391818902
21267235 1 18410580565136385287
21814621 53 16414362152377115690
23522609 53 18122943942534349293
23559900 14 18339071696864356665
283562 15 18191874422844751048
3178227 256 18263375818617639417
335352 9 18334301964210608502
3380486 145 18117576028426047161
392239 28 18338526214084011936
4461854 278 18059304261686108095
463206 1 18408610270754727723
469060 322 18193003621355653384
484989 97 18261401108076054642
6004065 56 18339642351424292728
9896288 288 17842845429673928425

> <PUBCHEM_SHAPE_MULTIPOLES>
700.13
16.06
5.61
0.89
14.68
3.64
-0.09
-15.83
3.83
-1.25
-1.12
-0.26
0.01
-0.16

> <PUBCHEM_SHAPE_SELFOVERLAP>
1589.721

> <PUBCHEM_SHAPE_VOLUME>
368.9

> <PUBCHEM_COORDINATE_TYPE>
2
5
10

$$$$
