49830686
  -OEChem-10062121563D

 35 37  0     0  0  0  0  0  0999 V2000
   -5.3820    3.0184    0.0007 F   0  0  0  0  0  0  0  0  0  0  0  0
    6.6968   -0.7561    0.0017 F   0  0  0  0  0  0  0  0  0  0  0  0
    5.1330   -1.8093    1.0848 F   0  0  0  0  0  0  0  0  0  0  0  0
    5.1349   -1.8095   -1.0839 F   0  0  0  0  0  0  0  0  0  0  0  0
    0.7180   -1.2168   -0.0006 O   0  0  0  0  0  0  0  0  0  0  0  0
   -1.1009    0.2584   -0.0002 N   0  0  0  0  0  0  0  0  0  0  0  0
   -4.3380   -2.3890   -0.0002 N   0  0  0  0  0  0  0  0  0  0  0  0
    1.0457    1.0987   -0.0005 N   0  0  0  0  0  0  0  0  0  0  0  0
    3.1940    0.0794   -0.0008 N   0  0  0  0  0  0  0  0  0  0  0  0
   -3.5212   -0.1219    0.0001 C   0  0  0  0  0  0  0  0  0  0  0  0
   -2.2048   -0.6026    0.0000 C   0  0  0  0  0  0  0  0  0  0  0  0
   -4.5719   -1.0631    0.0001 C   0  0  0  0  0  0  0  0  0  0  0  0
   -3.8019    1.2551    0.0001 C   0  0  0  0  0  0  0  0  0  0  0  0
   -1.9606   -1.9683   -0.0002 C   0  0  0  0  0  0  0  0  0  0  0  0
   -5.8794   -0.5850    0.0002 C   0  0  0  0  0  0  0  0  0  0  0  0
   -5.1189    1.7054    0.0002 C   0  0  0  0  0  0  0  0  0  0  0  0
   -6.1587    0.7839    0.0003 C   0  0  0  0  0  0  0  0  0  0  0  0
   -3.0530   -2.8118   -0.0003 C   0  0  0  0  0  0  0  0  0  0  0  0
    2.4561    1.2120   -0.0007 C   0  0  0  0  0  0  0  0  0  0  0  0
    0.2729   -0.0735   -0.0005 C   0  0  0  0  0  0  0  0  0  0  0  0
    4.5367    0.2374   -0.0005 C   0  0  0  0  0  0  0  0  0  0  0  0
    2.9946    2.4888   -0.0001 C   0  0  0  0  0  0  0  0  0  0  0  0
    5.1726    1.4684   -0.0002 C   0  0  0  0  0  0  0  0  0  0  0  0
    4.3796    2.6107    0.0000 C   0  0  0  0  0  0  0  0  0  0  0  0
    5.3561   -1.0098    0.0005 C   0  0  0  0  0  0  0  0  0  0  0  0
   -3.0307    2.0181    0.0002 H   0  0  0  0  0  0  0  0  0  0  0  0
   -1.2897    1.2535   -0.0001 H   0  0  0  0  0  0  0  0  0  0  0  0
   -0.9971   -2.4497   -0.0003 H   0  0  0  0  0  0  0  0  0  0  0  0
   -6.7118   -1.2863    0.0002 H   0  0  0  0  0  0  0  0  0  0  0  0
   -7.1892    1.1267    0.0005 H   0  0  0  0  0  0  0  0  0  0  0  0
   -2.9252   -3.8895   -0.0004 H   0  0  0  0  0  0  0  0  0  0  0  0
    0.5366    1.9790   -0.0002 H   0  0  0  0  0  0  0  0  0  0  0  0
    2.3712    3.3769    0.0002 H   0  0  0  0  0  0  0  0  0  0  0  0
    6.2529    1.5629    0.0001 H   0  0  0  0  0  0  0  0  0  0  0  0
    4.8402    3.5940    0.0004 H   0  0  0  0  0  0  0  0  0  0  0  0
  1 16  1  0  0  0  0
  2 25  1  0  0  0  0
  3 25  1  0  0  0  0
  4 25  1  0  0  0  0
  5 20  2  0  0  0  0
  6 11  1  0  0  0  0
  6 20  1  0  0  0  0
  6 27  1  0  0  0  0
  7 12  2  0  0  0  0
  7 18  1  0  0  0  0
  8 19  1  0  0  0  0
  8 20  1  0  0  0  0
  8 32  1  0  0  0  0
  9 19  1  0  0  0  0
  9 21  2  0  0  0  0
 10 11  2  0  0  0  0
 10 12  1  0  0  0  0
 10 13  1  0  0  0  0
 11 14  1  0  0  0  0
 12 15  1  0  0  0  0
 13 16  2  0  0  0  0
 13 26  1  0  0  0  0
 14 18  2  0  0  0  0
 14 28  1  0  0  0  0
 15 17  2  0  0  0  0
 15 29  1  0  0  0  0
 16 17  1  0  0  0  0
 17 30  1  0  0  0  0
 18 31  1  0  0  0  0
 19 22  2  0  0  0  0
 21 23  1  0  0  0  0
 21 25  1  0  0  0  0
 22 24  1  0  0  0  0
 22 33  1  0  0  0  0
 23 24  2  0  0  0  0
 23 34  1  0  0  0  0
 24 35  1  0  0  0  0
M  END
> <PUBCHEM_COMPOUND_CID>
49830686

> <PUBCHEM_CONFORMER_RMSD>
0.8

> <PUBCHEM_CONFORMER_DIVERSEORDER>
1
23
18
6
19
9
26
13
7
10
8
4
25
14
11
17
5
3
12
20
24
2
16
15
21
22

> <PUBCHEM_MMFF94_PARTIAL_CHARGES>
34
1 -0.19
11 0.12
12 0.31
13 -0.15
14 -0.15
15 -0.15
16 0.19
17 -0.15
18 0.16
19 0.43
2 -0.34
20 0.69
21 0.17
22 -0.15
23 -0.15
24 -0.15
25 1.16
26 0.15
27 0.37
28 0.15
29 0.15
3 -0.34
30 0.15
31 0.15
32 0.37
33 0.15
34 0.15
35 0.15
4 -0.34
5 -0.57
6 -0.55
7 -0.62
8 -0.55
9 -0.62

> <PUBCHEM_EFFECTIVE_ROTOR_COUNT>
5

> <PUBCHEM_PHARMACOPHORE_FEATURES>
8
1 5 acceptor
1 6 donor
1 7 acceptor
1 8 donor
1 9 acceptor
6 10 12 13 15 16 17 rings
6 7 10 11 12 14 18 rings
6 9 19 21 22 23 24 rings

> <PUBCHEM_HEAVY_ATOM_COUNT>
25

> <PUBCHEM_ATOM_DEF_STEREO_COUNT>
0

> <PUBCHEM_ATOM_UDEF_STEREO_COUNT>
0

> <PUBCHEM_BOND_DEF_STEREO_COUNT>
0

> <PUBCHEM_BOND_UDEF_STEREO_COUNT>
0

> <PUBCHEM_ISOTOPIC_ATOM_COUNT>
0

> <PUBCHEM_COMPONENT_COUNT>
1

> <PUBCHEM_CACTVS_TAUTO_COUNT>
11

> <PUBCHEM_CONFORMER_ID>
02F85B1E00000001

> <PUBCHEM_MMFF94_ENERGY>
69.3251

> <PUBCHEM_FEATURE_SELFOVERLAP>
40.681

> <PUBCHEM_SHAPE_FINGERPRINT>
10595046 47 18265333000332591284
10835480 77 18342733070084009144
11405975 8 18409447015961308304
11796584 16 18342740719684201854
12107183 9 18264483979797872632
12166972 35 18408608088748382601
13073987 5 18337107976942869016
13167823 11 18337669827522117754
13533116 47 18131071541497634544
13785724 45 18052822447340049998
14341114 176 18336550507578941121
14420673 8 18336267851312534042
14904525 67 15502091959894446949
14933364 13 18409451401070468660
15042514 8 18192153922638113611
15183329 4 18410856551049855019
15196674 1 18410855507378089792
15250474 111 18268697480413522110
15419008 42 17985828129515753549
17844677 252 18338242655699723392
1813 80 16877656898578203412
19611394 137 17969799639055214697
19958102 18 18334568058254999295
20281389 69 18408323289661760937
20645477 70 18411702119285462502
21065198 57 18266740357967619016
21236236 1 18340768239037031575
21267235 1 18336271219067644875
21279426 13 18412265003986257948
21315763 129 18412545431201750031
21315764 268 18337949095133954597
23522609 53 17823723913603497940
23536379 177 18410292518801819448
23559900 14 18343297072034697618
23569943 247 17096913690491046346
2838139 119 18411976937015664661
3004659 81 18408887339442840408
335352 9 18410573972287739645
4073 2 18042126621351549322
4197921 191 18335425707226275109
4214541 1 18410856585662976325
5104073 3 18411138077592567272
5283173 99 18412263934845512209
531348 171 18202280316975661055
559249 180 18411416194095119515
59755656 215 18340208483806205182
59755656 520 17167864167046658499
633830 44 17749387130560054688
90127 26 18261118503491069464
9965369 4 18410291393889464617
9995097 60 18413952780204885622
9996256 80 18411981399338829399

> <PUBCHEM_SHAPE_MULTIPOLES>
459.6
17.61
2.95
0.65
6.04
0.33
0
1.24
0
-0.67
0
0.3
-0.12
0

> <PUBCHEM_SHAPE_SELFOVERLAP>
1013.632

> <PUBCHEM_SHAPE_VOLUME>
245.7

> <PUBCHEM_COORDINATE_TYPE>
2
5
10

$$$$
