9983303
  -OEChem-10062122023D

 69 74  0     0  0  0  0  0  0999 V2000
   -5.0787    0.8343    2.6210 O   0  0  0  0  0  0  0  0  0  0  0  0
   10.5570    0.9380    0.8974 O   0  0  0  0  0  0  0  0  0  0  0  0
    1.6752   -1.7651   -0.7004 O   0  0  0  0  0  0  0  0  0  0  0  0
   -9.6174   -1.6712   -1.2773 N   0  0  0  0  0  0  0  0  0  0  0  0
   -6.3908    0.3912    2.5082 N   0  0  0  0  0  0  0  0  0  0  0  0
    8.0807   -0.2363    0.2742 N   0  0  0  0  0  0  0  0  0  0  0  0
    3.2956   -0.0931   -0.4106 N   0  0  0  0  0  0  0  0  0  0  0  0
   -7.8379   -0.5468    0.7608 C   0  0  0  0  0  0  0  0  0  0  0  0
   -7.7403   -2.0104    0.2966 C   0  0  0  0  0  0  0  0  0  0  0  0
   -8.4724    0.3129   -0.3460 C   0  0  0  0  0  0  0  0  0  0  0  0
   -9.0896   -2.5204   -0.2093 C   0  0  0  0  0  0  0  0  0  0  0  0
   -9.7922   -0.2907   -0.8263 C   0  0  0  0  0  0  0  0  0  0  0  0
   -6.5135    0.0032    1.2406 C   0  0  0  0  0  0  0  0  0  0  0  0
   -5.3358    0.1690    0.4979 C   0  0  0  0  0  0  0  0  0  0  0  0
   -4.4517    0.7007    1.4203 C   0  0  0  0  0  0  0  0  0  0  0  0
   -4.8975   -0.0548   -0.8155 C   0  0  0  0  0  0  0  0  0  0  0  0
   -3.1314    1.0382    1.1371 C   0  0  0  0  0  0  0  0  0  0  0  0
   -2.7079    0.8099   -0.1764 C   0  0  0  0  0  0  0  0  0  0  0  0
   -3.5726    0.2737   -1.1363 C   0  0  0  0  0  0  0  0  0  0  0  0
    9.3286   -0.8398   -0.2062 C   0  0  0  0  0  0  0  0  0  0  0  0
    8.2176    0.6258    1.4563 C   0  0  0  0  0  0  0  0  0  0  0  0
   -1.3460    1.1342   -0.5469 C   0  0  0  0  0  0  0  0  0  0  0  0
   10.4040    0.2335   -0.3342 C   0  0  0  0  0  0  0  0  0  0  0  0
    9.3511    1.6215    1.2382 C   0  0  0  0  0  0  0  0  0  0  0  0
    6.8646   -0.8981    0.0766 C   0  0  0  0  0  0  0  0  0  0  0  0
   -1.0138    2.3983   -1.0358 C   0  0  0  0  0  0  0  0  0  0  0  0
   -0.3570    0.1595   -0.4086 C   0  0  0  0  0  0  0  0  0  0  0  0
    5.6867   -0.1652   -0.0683 C   0  0  0  0  0  0  0  0  0  0  0  0
    0.9619    0.4482   -0.7588 C   0  0  0  0  0  0  0  0  0  0  0  0
    6.8297   -2.2917    0.0257 C   0  0  0  0  0  0  0  0  0  0  0  0
    4.4919   -0.8369   -0.2619 C   0  0  0  0  0  0  0  0  0  0  0  0
    0.3052    2.6870   -1.3859 C   0  0  0  0  0  0  0  0  0  0  0  0
    1.2931    1.7119   -1.2475 C   0  0  0  0  0  0  0  0  0  0  0  0
   -2.0450    3.4687   -1.1980 C   0  0  0  0  0  0  0  0  0  0  0  0
    1.9925   -0.5679   -0.6150 C   0  0  0  0  0  0  0  0  0  0  0  0
    5.6169   -2.9522   -0.1702 C   0  0  0  0  0  0  0  0  0  0  0  0
    4.4390   -2.2192   -0.3152 C   0  0  0  0  0  0  0  0  0  0  0  0
   -8.5308   -0.5286    1.6159 H   0  0  0  0  0  0  0  0  0  0  0  0
   -7.3988   -2.6434    1.1251 H   0  0  0  0  0  0  0  0  0  0  0  0
   -6.9958   -2.1167   -0.5017 H   0  0  0  0  0  0  0  0  0  0  0  0
   -7.7924    0.4110   -1.2008 H   0  0  0  0  0  0  0  0  0  0  0  0
   -8.6506    1.3295    0.0262 H   0  0  0  0  0  0  0  0  0  0  0  0
   -8.9735   -3.5405   -0.5917 H   0  0  0  0  0  0  0  0  0  0  0  0
   -9.8109   -2.5750    0.6150 H   0  0  0  0  0  0  0  0  0  0  0  0
  -10.5432   -0.2511   -0.0280 H   0  0  0  0  0  0  0  0  0  0  0  0
  -10.1856    0.3067   -1.6561 H   0  0  0  0  0  0  0  0  0  0  0  0
   -8.9644   -1.6824   -2.0612 H   0  0  0  0  0  0  0  0  0  0  0  0
   -5.5515   -0.4696   -1.5755 H   0  0  0  0  0  0  0  0  0  0  0  0
   -2.4797    1.4528    1.8983 H   0  0  0  0  0  0  0  0  0  0  0  0
   -3.2288    0.1016   -2.1547 H   0  0  0  0  0  0  0  0  0  0  0  0
    9.6611   -1.6001    0.5112 H   0  0  0  0  0  0  0  0  0  0  0  0
    9.1903   -1.3155   -1.1842 H   0  0  0  0  0  0  0  0  0  0  0  0
    7.2988    1.1807    1.6744 H   0  0  0  0  0  0  0  0  0  0  0  0
    8.4413   -0.0072    2.3242 H   0  0  0  0  0  0  0  0  0  0  0  0
   11.3654   -0.2286   -0.5797 H   0  0  0  0  0  0  0  0  0  0  0  0
   10.1644    0.9454   -1.1334 H   0  0  0  0  0  0  0  0  0  0  0  0
    9.1041    2.3416    0.4486 H   0  0  0  0  0  0  0  0  0  0  0  0
    9.5335    2.1868    2.1576 H   0  0  0  0  0  0  0  0  0  0  0  0
   -0.6171   -0.8242   -0.0220 H   0  0  0  0  0  0  0  0  0  0  0  0
    5.7070    0.9216   -0.0436 H   0  0  0  0  0  0  0  0  0  0  0  0
    7.7248   -2.8946    0.1488 H   0  0  0  0  0  0  0  0  0  0  0  0
    0.5795    3.6636   -1.7762 H   0  0  0  0  0  0  0  0  0  0  0  0
    2.2970    1.9717   -1.5697 H   0  0  0  0  0  0  0  0  0  0  0  0
   -2.5029    3.7162   -0.2348 H   0  0  0  0  0  0  0  0  0  0  0  0
   -2.8218    3.1561   -1.9033 H   0  0  0  0  0  0  0  0  0  0  0  0
   -1.6098    4.3941   -1.5917 H   0  0  0  0  0  0  0  0  0  0  0  0
    3.4309    0.9097   -0.3151 H   0  0  0  0  0  0  0  0  0  0  0  0
    5.5902   -4.0376   -0.2064 H   0  0  0  0  0  0  0  0  0  0  0  0
    3.5429   -2.8030   -0.4621 H   0  0  0  0  0  0  0  0  0  0  0  0
  1  5  1  0  0  0  0
  1 15  1  0  0  0  0
  2 23  1  0  0  0  0
  2 24  1  0  0  0  0
  3 35  2  0  0  0  0
  4 11  1  0  0  0  0
  4 12  1  0  0  0  0
  4 47  1  0  0  0  0
  5 13  2  0  0  0  0
  6 20  1  0  0  0  0
  6 21  1  0  0  0  0
  6 25  1  0  0  0  0
  7 31  1  0  0  0  0
  7 35  1  0  0  0  0
  7 67  1  0  0  0  0
  8  9  1  0  0  0  0
  8 10  1  0  0  0  0
  8 13  1  0  0  0  0
  8 38  1  0  0  0  0
  9 11  1  0  0  0  0
  9 39  1  0  0  0  0
  9 40  1  0  0  0  0
 10 12  1  0  0  0  0
 10 41  1  0  0  0  0
 10 42  1  0  0  0  0
 11 43  1  0  0  0  0
 11 44  1  0  0  0  0
 12 45  1  0  0  0  0
 12 46  1  0  0  0  0
 13 14  1  0  0  0  0
 14 15  2  0  0  0  0
 14 16  1  0  0  0  0
 15 17  1  0  0  0  0
 16 19  2  0  0  0  0
 16 48  1  0  0  0  0
 17 18  2  0  0  0  0
 17 49  1  0  0  0  0
 18 19  1  0  0  0  0
 18 22  1  0  0  0  0
 19 50  1  0  0  0  0
 20 23  1  0  0  0  0
 20 51  1  0  0  0  0
 20 52  1  0  0  0  0
 21 24  1  0  0  0  0
 21 53  1  0  0  0  0
 21 54  1  0  0  0  0
 22 26  2  0  0  0  0
 22 27  1  0  0  0  0
 23 55  1  0  0  0  0
 23 56  1  0  0  0  0
 24 57  1  0  0  0  0
 24 58  1  0  0  0  0
 25 28  1  0  0  0  0
 25 30  2  0  0  0  0
 26 32  1  0  0  0  0
 26 34  1  0  0  0  0
 27 29  2  0  0  0  0
 27 59  1  0  0  0  0
 28 31  2  0  0  0  0
 28 60  1  0  0  0  0
 29 33  1  0  0  0  0
 29 35  1  0  0  0  0
 30 36  1  0  0  0  0
 30 61  1  0  0  0  0
 31 37  1  0  0  0  0
 32 33  2  0  0  0  0
 32 62  1  0  0  0  0
 33 63  1  0  0  0  0
 34 64  1  0  0  0  0
 34 65  1  0  0  0  0
 34 66  1  0  0  0  0
 36 37  2  0  0  0  0
 36 68  1  0  0  0  0
 37 69  1  0  0  0  0
M  END
> <PUBCHEM_COMPOUND_CID>
9983303

> <PUBCHEM_CONFORMER_RMSD>
1

> <PUBCHEM_CONFORMER_DIVERSEORDER>
4
48
40
10
26
58
7
61
85
29
87
54
90
46
95
15
9
49
78
17
52
80
43
89
37
88
8
55
24
75
74
50
45
19
59
23
83
27
31
92
73
81
91
28
36
22
71
86
14
63
76
77
82
57
56
44
11
6
60
5
42
39
64
62
79
68
12
16
35
33
93
65
67
84
51
1
72
38
41
94
47
34
66
25
53
20
32
21
30
3
69
70
18
13
2

> <PUBCHEM_MMFF94_PARTIAL_CHARGES>
44
1 -0.02
11 0.27
12 0.27
13 0.11
15 0.14
16 -0.15
17 -0.15
19 -0.15
2 -0.56
20 0.37
21 0.37
23 0.28
24 0.28
25 0.1
26 -0.14
27 -0.15
28 -0.15
29 0.09
3 -0.57
30 -0.15
31 0.12
32 -0.15
33 -0.15
34 0.14
35 0.54
36 -0.15
37 -0.15
4 -0.9
47 0.36
48 0.15
49 0.15
5 -0.41
50 0.15
59 0.15
6 -0.84
60 0.15
61 0.15
62 0.15
63 0.15
67 0.37
68 0.15
69 0.15
7 -0.55
8 0.18

> <PUBCHEM_EFFECTIVE_ROTOR_COUNT>
8.4

> <PUBCHEM_PHARMACOPHORE_FEATURES>
13
1 2 acceptor
1 3 acceptor
1 4 cation
1 4 donor
1 5 acceptor
1 6 cation
1 7 donor
5 1 5 13 14 15 rings
6 14 15 16 17 18 19 rings
6 2 6 20 21 23 24 rings
6 22 26 27 29 32 33 rings
6 25 28 30 31 36 37 rings
6 4 8 9 10 11 12 rings

> <PUBCHEM_HEAVY_ATOM_COUNT>
37

> <PUBCHEM_ATOM_DEF_STEREO_COUNT>
0

> <PUBCHEM_ATOM_UDEF_STEREO_COUNT>
0

> <PUBCHEM_BOND_DEF_STEREO_COUNT>
0

> <PUBCHEM_BOND_UDEF_STEREO_COUNT>
0

> <PUBCHEM_ISOTOPIC_ATOM_COUNT>
0

> <PUBCHEM_COMPONENT_COUNT>
1

> <PUBCHEM_CACTVS_TAUTO_COUNT>
2

> <PUBCHEM_CONFORMER_ID>
0098554700000004

> <PUBCHEM_MMFF94_ENERGY>
111.8564

> <PUBCHEM_FEATURE_SELFOVERLAP>
66.073

> <PUBCHEM_SHAPE_FINGERPRINT>
10 15 16343985793095653291
10162869 55 18335421292210410950
10391435 84 17967820465631334650
106641 1 18202282511302547958
10674148 151 12035448354544963671
11050421 43 18341331205527972215
11135609 99 18130223869925953783
11211813 128 18410578358230343342
11297010 23 9007059046272781504
11410812 94 16009019558819762479
11621639 183 15266521534553412395
11828042 206 16660359294784461389
11828042 58 12247682690746327956
12013929 94 18131351933979536867
12098696 120 11455890243631735282
12120059 9 17385997343774942170
12202916 173 18113903753851670243
12539747 91 17385441029260968557
12559415 135 15357696357730573775
12643181 29 16660651773831114211
12838862 33 17530961388770292259
13383668 251 18339632460025432880
13740195 50 17847060012667861186
13811026 1 17894914026962461773
14664723 55 12103842384587696114
14849402 71 17846495963688369344
14918687 75 17988919011584342567
15065858 18 17967810531097528886
15183329 4 9799688187085579156
15320295 40 16805323288398620454
15326923 82 18411416220170735805
15347590 135 18335701612257813472
15347591 1 18119242858262465910
15392192 104 17418094313082964542
15510794 2 17968093080343616718
15728490 51 18272369784482522919
16664035 7 17821446850824028012
20105231 36 18201164253045209918
20501277 279 18412821409564879424
21026386 80 17023466472616489277
21095123 145 15697997444901518807
21130935 74 18267305327241764050
22149856 69 18264784164449021040
23559900 14 16154286039081988269
24203241 11 17987793154970577551
24771293 8 18341905060713301057
2747138 104 18188220818899190008
3092352 35 17060618889684917870
335507 130 18408886231594772020
3383291 50 17676779716183886642
3633792 109 8214142958957544908
4112364 45 14836114489932946976
4173938 188 18341891930724679314
57303763 176 11026055964183983374
5758199 1 18131914845752817726
58902169 19 11963685438192596346
59521660 218 17822580524436851716
59682541 35 18335423470048869976
6126387 218 18336265661765157065
6691757 9 16486969610294159447
9511036 111 17917140711313047247
9663363 56 18113334206970335037
9962374 69 18261390100475580868

> <PUBCHEM_SHAPE_MULTIPOLES>
723.91
38.6
2.67
1.51
26.52
0.27
0.84
-15.32
7.66
0.24
-0.99
-2
0.58
0.58

> <PUBCHEM_SHAPE_SELFOVERLAP>
1592.084

> <PUBCHEM_SHAPE_VOLUME>
390.3

> <PUBCHEM_COORDINATE_TYPE>
2
5
10

$$$$
