24905161
  -OEChem-10052115143D

 42 44  0     0  0  0  0  0  0999 V2000
    5.4737   -0.1310    0.2491 S   0  0  0  0  0  0  0  0  0  0  0  0
    6.8272    0.3765    0.3753 O   0  0  0  0  0  0  0  0  0  0  0  0
    4.8754   -0.9078    1.3167 O   0  0  0  0  0  0  0  0  0  0  0  0
   -3.1982    0.8493    0.0347 N   0  0  0  0  0  0  0  0  0  0  0  0
   -1.9749    1.4094   -0.0038 N   0  0  0  0  0  0  0  0  0  0  0  0
   -4.2316   -1.3402    0.0624 N   0  0  0  0  0  0  0  0  0  0  0  0
   -2.5682   -3.1235    0.0029 N   0  0  0  0  0  0  0  0  0  0  0  0
    4.4457    1.1701   -0.2163 N   0  0  0  0  0  0  0  0  0  0  0  0
   -0.2211   -2.6961   -0.0717 N   0  0  0  0  0  0  0  0  0  0  0  0
   -4.3675    1.6952    0.0755 C   0  0  0  0  0  0  0  0  0  0  0  0
   -3.1741   -0.5138    0.0300 C   0  0  0  0  0  0  0  0  0  0  0  0
   -1.8382   -0.8720   -0.0148 C   0  0  0  0  0  0  0  0  0  0  0  0
   -1.1511    0.3561   -0.0339 C   0  0  0  0  0  0  0  0  0  0  0  0
    0.2745    0.5628   -0.0803 C   0  0  0  0  0  0  0  0  0  0  0  0
   -4.3946    2.5576    1.3399 C   0  0  0  0  0  0  0  0  0  0  0  0
   -4.4776    2.5644   -1.1797 C   0  0  0  0  0  0  0  0  0  0  0  0
   -1.5484   -2.2323   -0.0280 C   0  0  0  0  0  0  0  0  0  0  0  0
    0.9246    0.6664   -1.3100 C   0  0  0  0  0  0  0  0  0  0  0  0
    1.0041    0.6600    1.1046 C   0  0  0  0  0  0  0  0  0  0  0  0
    3.0337    0.9640   -0.1700 C   0  0  0  0  0  0  0  0  0  0  0  0
    2.3041    0.8670   -1.3550 C   0  0  0  0  0  0  0  0  0  0  0  0
    2.3837    0.8605    1.0598 C   0  0  0  0  0  0  0  0  0  0  0  0
   -3.8285   -2.6290    0.0456 C   0  0  0  0  0  0  0  0  0  0  0  0
    5.4272   -1.1137   -1.2330 C   0  0  0  0  0  0  0  0  0  0  0  0
   -5.2453    1.0384    0.1026 H   0  0  0  0  0  0  0  0  0  0  0  0
   -3.5621    3.2695    1.3629 H   0  0  0  0  0  0  0  0  0  0  0  0
   -4.3242    1.9343    2.2382 H   0  0  0  0  0  0  0  0  0  0  0  0
   -5.3271    3.1289    1.3980 H   0  0  0  0  0  0  0  0  0  0  0  0
   -3.6482    3.2766   -1.2535 H   0  0  0  0  0  0  0  0  0  0  0  0
   -5.4118    3.1359   -1.1733 H   0  0  0  0  0  0  0  0  0  0  0  0
   -4.4663    1.9460   -2.0841 H   0  0  0  0  0  0  0  0  0  0  0  0
    0.3704    0.5922   -2.2427 H   0  0  0  0  0  0  0  0  0  0  0  0
    0.5119    0.5838    2.0713 H   0  0  0  0  0  0  0  0  0  0  0  0
    2.8004    0.9449   -2.3189 H   0  0  0  0  0  0  0  0  0  0  0  0
    2.9362    0.9468    1.9917 H   0  0  0  0  0  0  0  0  0  0  0  0
   -4.6207   -3.3696    0.0696 H   0  0  0  0  0  0  0  0  0  0  0  0
    4.7623    1.7044   -1.0367 H   0  0  0  0  0  0  0  0  0  0  0  0
    0.5591   -2.0562   -0.0956 H   0  0  0  0  0  0  0  0  0  0  0  0
   -0.0547   -3.6935   -0.0800 H   0  0  0  0  0  0  0  0  0  0  0  0
    6.1067   -1.9581   -1.0968 H   0  0  0  0  0  0  0  0  0  0  0  0
    4.4124   -1.4824   -1.3907 H   0  0  0  0  0  0  0  0  0  0  0  0
    5.7611   -0.5044   -2.0750 H   0  0  0  0  0  0  0  0  0  0  0  0
  1  2  2  0  0  0  0
  1  3  2  0  0  0  0
  1  8  1  0  0  0  0
  1 24  1  0  0  0  0
  4  5  1  0  0  0  0
  4 10  1  0  0  0  0
  4 11  1  0  0  0  0
  5 13  2  0  0  0  0
  6 11  2  0  0  0  0
  6 23  1  0  0  0  0
  7 17  1  0  0  0  0
  7 23  2  0  0  0  0
  8 20  1  0  0  0  0
  8 37  1  0  0  0  0
  9 17  1  0  0  0  0
  9 38  1  0  0  0  0
  9 39  1  0  0  0  0
 10 15  1  0  0  0  0
 10 16  1  0  0  0  0
 10 25  1  0  0  0  0
 11 12  1  0  0  0  0
 12 13  1  0  0  0  0
 12 17  2  0  0  0  0
 13 14  1  0  0  0  0
 14 18  2  0  0  0  0
 14 19  1  0  0  0  0
 15 26  1  0  0  0  0
 15 27  1  0  0  0  0
 15 28  1  0  0  0  0
 16 29  1  0  0  0  0
 16 30  1  0  0  0  0
 16 31  1  0  0  0  0
 18 21  1  0  0  0  0
 18 32  1  0  0  0  0
 19 22  2  0  0  0  0
 19 33  1  0  0  0  0
 20 21  2  0  0  0  0
 20 22  1  0  0  0  0
 21 34  1  0  0  0  0
 22 35  1  0  0  0  0
 23 36  1  0  0  0  0
 24 40  1  0  0  0  0
 24 41  1  0  0  0  0
 24 42  1  0  0  0  0
M  END
> <PUBCHEM_COMPOUND_CID>
24905161

> <PUBCHEM_CONFORMER_RMSD>
0.8

> <PUBCHEM_CONFORMER_DIVERSEORDER>
1
8
12
4
2
10
3
7
5
11
6
9

> <PUBCHEM_MMFF94_PARTIAL_CHARGES>
29
1 1.33
10 0.26
11 0.11
13 0.23
14 0.05
17 0.41
18 -0.15
19 -0.15
2 -0.65
20 0.2
21 -0.15
22 -0.15
23 0.47
24 0.11
3 -0.65
32 0.15
33 0.15
34 0.15
35 0.15
36 0.15
37 0.42
38 0.4
39 0.4
4 0.31
5 -0.71
6 -0.57
7 -0.62
8 -0.76
9 -0.9

> <PUBCHEM_EFFECTIVE_ROTOR_COUNT>
4

> <PUBCHEM_PHARMACOPHORE_FEATURES>
12
1 2 acceptor
1 3 acceptor
1 5 acceptor
1 8 donor
1 9 cation
1 9 donor
3 10 15 16 hydrophobe
3 4 6 11 cation
3 6 7 23 cation
5 4 5 11 12 13 rings
6 14 18 19 20 21 22 rings
6 6 7 11 12 17 23 rings

> <PUBCHEM_HEAVY_ATOM_COUNT>
24

> <PUBCHEM_ATOM_DEF_STEREO_COUNT>
0

> <PUBCHEM_ATOM_UDEF_STEREO_COUNT>
0

> <PUBCHEM_BOND_DEF_STEREO_COUNT>
0

> <PUBCHEM_BOND_UDEF_STEREO_COUNT>
0

> <PUBCHEM_ISOTOPIC_ATOM_COUNT>
0

> <PUBCHEM_COMPONENT_COUNT>
1

> <PUBCHEM_CACTVS_TAUTO_COUNT>
9

> <PUBCHEM_CONFORMER_ID>
017C05C900000001

> <PUBCHEM_MMFF94_ENERGY>
58.913

> <PUBCHEM_FEATURE_SELFOVERLAP>
61.192

> <PUBCHEM_SHAPE_FINGERPRINT>
10165383 225 18340209579788315217
10319926 262 18270949241888409216
10411042 1 17978510068560038515
105312 117 18115580444843700565
10595046 47 18190182480713626436
10835480 77 18273490187754470720
11112241 14 17059753603898305466
11315181 36 18261672674974552892
11405975 8 18412265060211482768
11545043 162 18272368702377202008
11796584 16 18413108342996506506
12107183 9 18191300481990748840
12236239 1 17749670787332834733
12293681 4 17989212520722033873
12422481 6 18042675105765700042
12500047 106 18412259536619464493
12616971 3 17095525098084721404
12643181 29 18340489951047991254
13140716 1 18193846934189279571
13167823 11 18334857268525669410
13583140 156 17703782656984409352
14294032 229 18263354816866619045
14420673 8 18265053544597729826
14790565 3 17765441937261344137
15021287 119 17385446522640288252
15042514 8 18192999451100579499
15183329 4 18261109656317160932
15537594 2 17676487207984571202
16752209 62 18337096982454494459
17093844 174 18410569596233218096
17844677 252 18339084903477426080
1813 80 17167582679163901342
19141452 34 18334294249805266308
20510252 161 18271248352100953177
20554085 129 17986653901830374865
20600515 1 18271821093821063428
20681677 155 18333167258887157360
21033648 29 17274810360129045570
21065198 57 18271243927915567792
21065201 7 18411131480633673872
21236236 1 18412261757454926269
21279426 13 18271250409205886102
21315763 178 17676201356578454720
21756936 100 17774445980459012241
23402539 116 18342171167796425644
23559900 14 18201165373593317148
23598291 2 17677337237171875924
3004659 81 18408045126594978302
312423 11 17823430468199030717
350125 39 18410012122568872683
4214541 1 18410574011148361584
5104073 3 18411418444890111456
5265222 85 18198071468374420086
5385378 56 18195254304440190473
559249 180 18335416851077252090
56616090 46 18269560446395009525
573450 72 18335980943317653912
59755656 215 18410853253058797631
59755656 520 18270965648879821897
7226269 152 17988927721361378400
7970288 3 17832707151004111483

> <PUBCHEM_SHAPE_MULTIPOLES>
456.13
12.87
2.93
1.14
15.46
1.68
0.06
-2.29
-0.62
-5.08
0
0.52
-0.45
0.08

> <PUBCHEM_SHAPE_SELFOVERLAP>
973.025

> <PUBCHEM_SHAPE_VOLUME>
257

> <PUBCHEM_COORDINATE_TYPE>
2
5
10

$$$$
