24905157
  -OEChem-10052115163D

 36 38  0     0  0  0  0  0  0999 V2000
    2.2229   -0.4178   -0.9958 S   0  0  0  0  0  0  0  0  0  0  0  0
    5.0886   -0.8940   -1.6927 O   0  0  0  0  0  0  0  0  0  0  0  0
   -2.2993    0.9338   -0.1727 N   0  0  0  0  0  0  0  0  0  0  0  0
   -1.0392    1.4068   -0.1658 N   0  0  0  0  0  0  0  0  0  0  0  0
   -3.4902   -1.1638    0.0378 N   0  0  0  0  0  0  0  0  0  0  0  0
   -1.9643   -3.0382    0.3680 N   0  0  0  0  0  0  0  0  0  0  0  0
    0.4053   -2.7712    0.4628 N   0  0  0  0  0  0  0  0  0  0  0  0
   -3.4020    1.8480   -0.3538 C   0  0  0  0  0  0  0  0  0  0  0  0
   -2.3757   -0.4163    0.0006 C   0  0  0  0  0  0  0  0  0  0  0  0
   -1.0710   -0.8592    0.1304 C   0  0  0  0  0  0  0  0  0  0  0  0
   -0.2960    0.3102    0.0190 C   0  0  0  0  0  0  0  0  0  0  0  0
   -3.3379    2.5448   -1.7151 C   0  0  0  0  0  0  0  0  0  0  0  0
   -3.4754    2.8731    0.7805 C   0  0  0  0  0  0  0  0  0  0  0  0
    1.1759    0.3946    0.0886 C   0  0  0  0  0  0  0  0  0  0  0  0
   -0.8825   -2.2241    0.3202 C   0  0  0  0  0  0  0  0  0  0  0  0
    1.8699    1.1297    1.0243 C   0  0  0  0  0  0  0  0  0  0  0  0
    3.2799    1.0247    0.8487 C   0  0  0  0  0  0  0  0  0  0  0  0
    3.6099    0.2132   -0.2145 C   0  0  0  0  0  0  0  0  0  0  0  0
   -3.1835   -2.4656    0.2258 C   0  0  0  0  0  0  0  0  0  0  0  0
    4.2650    1.7142    1.7168 C   0  0  0  0  0  0  0  0  0  0  0  0
    4.8997   -0.1430   -0.7131 C   0  0  0  0  0  0  0  0  0  0  0  0
   -4.3249    1.2562   -0.3268 H   0  0  0  0  0  0  0  0  0  0  0  0
   -2.4550    3.1880   -1.8001 H   0  0  0  0  0  0  0  0  0  0  0  0
   -4.2245    3.1684   -1.8722 H   0  0  0  0  0  0  0  0  0  0  0  0
   -3.2937    1.8105   -2.5271 H   0  0  0  0  0  0  0  0  0  0  0  0
   -2.5977    3.5289    0.7917 H   0  0  0  0  0  0  0  0  0  0  0  0
   -3.5298    2.3737    1.7542 H   0  0  0  0  0  0  0  0  0  0  0  0
   -4.3646    3.5035    0.6746 H   0  0  0  0  0  0  0  0  0  0  0  0
    1.3922    1.7157    1.8006 H   0  0  0  0  0  0  0  0  0  0  0  0
   -4.0274   -3.1457    0.2690 H   0  0  0  0  0  0  0  0  0  0  0  0
    4.9175    0.9881    2.2131 H   0  0  0  0  0  0  0  0  0  0  0  0
    4.8876    2.3964    1.1286 H   0  0  0  0  0  0  0  0  0  0  0  0
    3.7706    2.3038    2.4960 H   0  0  0  0  0  0  0  0  0  0  0  0
    1.2293   -2.1887    0.4411 H   0  0  0  0  0  0  0  0  0  0  0  0
    0.4972   -3.7688    0.6002 H   0  0  0  0  0  0  0  0  0  0  0  0
    5.7738    0.2792   -0.1893 H   0  0  0  0  0  0  0  0  0  0  0  0
  1 14  1  0  0  0  0
  1 18  1  0  0  0  0
  2 21  2  0  0  0  0
  3  4  1  0  0  0  0
  3  8  1  0  0  0  0
  3  9  1  0  0  0  0
  4 11  2  0  0  0  0
  5  9  2  0  0  0  0
  5 19  1  0  0  0  0
  6 15  1  0  0  0  0
  6 19  2  0  0  0  0
  7 15  1  0  0  0  0
  7 34  1  0  0  0  0
  7 35  1  0  0  0  0
  8 12  1  0  0  0  0
  8 13  1  0  0  0  0
  8 22  1  0  0  0  0
  9 10  1  0  0  0  0
 10 11  1  0  0  0  0
 10 15  2  0  0  0  0
 11 14  1  0  0  0  0
 12 23  1  0  0  0  0
 12 24  1  0  0  0  0
 12 25  1  0  0  0  0
 13 26  1  0  0  0  0
 13 27  1  0  0  0  0
 13 28  1  0  0  0  0
 14 16  2  0  0  0  0
 16 17  1  0  0  0  0
 16 29  1  0  0  0  0
 17 18  2  0  0  0  0
 17 20  1  0  0  0  0
 18 21  1  0  0  0  0
 19 30  1  0  0  0  0
 20 31  1  0  0  0  0
 20 32  1  0  0  0  0
 20 33  1  0  0  0  0
 21 36  1  0  0  0  0
M  END
> <PUBCHEM_COMPOUND_CID>
24905157

> <PUBCHEM_CONFORMER_RMSD>
0.6

> <PUBCHEM_CONFORMER_DIVERSEORDER>
2
16
1
10
15
7
8
9
4
3
13
14
6
12
11
5

> <PUBCHEM_MMFF94_PARTIAL_CHARGES>
23
1 -0.08
11 0.29
14 0.04
15 0.41
16 -0.15
17 -0.18
18 -0.05
19 0.47
2 -0.57
20 0.18
21 0.59
29 0.15
3 0.31
30 0.15
34 0.4
35 0.4
36 0.06
4 -0.71
5 -0.57
6 -0.62
7 -0.9
8 0.26
9 0.11

> <PUBCHEM_EFFECTIVE_ROTOR_COUNT>
3

> <PUBCHEM_PHARMACOPHORE_FEATURES>
10
1 2 acceptor
1 4 acceptor
1 7 cation
1 7 donor
3 3 5 9 cation
3 5 6 19 cation
3 8 12 13 hydrophobe
5 1 14 16 17 18 rings
5 3 4 9 10 11 rings
6 5 6 9 10 15 19 rings

> <PUBCHEM_HEAVY_ATOM_COUNT>
21

> <PUBCHEM_ATOM_DEF_STEREO_COUNT>
0

> <PUBCHEM_ATOM_UDEF_STEREO_COUNT>
0

> <PUBCHEM_BOND_DEF_STEREO_COUNT>
0

> <PUBCHEM_BOND_UDEF_STEREO_COUNT>
0

> <PUBCHEM_ISOTOPIC_ATOM_COUNT>
0

> <PUBCHEM_COMPONENT_COUNT>
1

> <PUBCHEM_CACTVS_TAUTO_COUNT>
5

> <PUBCHEM_CONFORMER_ID>
017C05C500000002

> <PUBCHEM_MMFF94_ENERGY>
36.9975

> <PUBCHEM_FEATURE_SELFOVERLAP>
51.025

> <PUBCHEM_SHAPE_FINGERPRINT>
10165383 225 18192725448876249549
10319926 262 18267840922870095208
105312 117 18041827407833196629
10608611 8 18271802471158651528
10646746 165 18411415120574581784
1100329 8 16902164690791562040
11405975 8 18341892974733632056
11796584 16 18337394825884288950
12173636 292 18337100190404882605
12236239 1 17023176171856251226
12403259 226 18198623430846949547
12403259 415 18343867736087161328
12500047 106 18408885105564006990
12507560 40 18201717405655618584
12788726 201 18044659938564012945
12954195 1 18341899567365941471
13140716 1 18119526532051585259
13464514 151 18056765321025674100
13544592 145 18342741772003664148
14178342 30 18261096509427555882
14790565 3 17764040068494520912
15042514 8 18191313873862892507
15219456 202 18131349752172671032
16752209 62 18261668263631689851
16945 1 18334856173330276851
18186145 218 18341892957221609152
19049666 15 18272934920821710962
200 152 16343698798975476924
20510252 161 18341890852782385153
20645477 56 18410015403554628069
20645477 70 17275106133152299572
20681677 76 18131061684363372584
20693207 138 18201172047840496388
20871999 31 18335712671423813332
21033648 29 18264482897382704821
21065201 7 18408320008343286978
21279426 13 18268719312233123078
22182313 1 18059575845288753384
22943178 12 18201434822397958600
23402539 116 18195792193085541551
23419403 2 17271144743213101497
23526113 38 17845923117470479536
23557571 272 18339358682015154104
23559900 14 18342740677129667748
23845131 108 18122074105205114153
25 1 18198904703928516253
2748010 2 18191312585372170799
283562 15 18337663230884900523
350125 39 18337116657625792075
495365 180 17631997681711086408
5104073 3 18343300379702802616
559249 180 18261672563643299226
59755656 215 18411703162704228127
59755656 520 18129389202992875361
6049 1 18200597020122891280
633830 44 18059001783527489308
77492 1 17023177262661925872
81228 2 18190463942599375649
84936 182 17836633129201107129
9709674 26 18272085058573751828
9862522 239 17677879159303253437

> <PUBCHEM_SHAPE_MULTIPOLES>
405.25
8.97
3.26
1.24
7.81
0.93
0.21
-2.91
1.38
-4.26
-0.47
0.99
-0.58
1.93

> <PUBCHEM_SHAPE_SELFOVERLAP>
869.454

> <PUBCHEM_SHAPE_VOLUME>
226.9

> <PUBCHEM_COORDINATE_TYPE>
2
5
10

$$$$
