44352890
  -OEChem-10062121583D

 73 81  0     1  0  0  0  0  0999 V2000
   -7.0251    0.3886   -3.7914 Cl  0  0  0  0  0  0  0  0  0  0  0  0
    0.3131   -0.1489    2.5157 O   0  0  0  0  0  0  0  0  0  0  0  0
   -1.0399    0.5450   -0.4527 O   0  0  0  0  0  0  0  0  0  0  0  0
    6.1253   -1.7753   -1.6875 O   0  0  0  0  0  0  0  0  0  0  0  0
   -4.3636    1.2973    1.2454 O   0  0  0  0  0  0  0  0  0  0  0  0
    0.9986    1.4658    0.9886 N   0  0  0  0  0  0  0  0  0  0  0  0
    1.3120   -1.5175    0.9219 N   0  0  0  0  0  0  0  0  0  0  0  0
   -3.3497   -0.7352    0.6885 N   0  0  0  0  0  0  0  0  0  0  0  0
    6.2573    0.5550   -1.8520 N   0  0  0  0  0  0  0  0  0  0  0  0
   -0.1277    0.9971    1.7820 C   0  0  1  0  0  0  0  0  0  0  0  0
   -1.3984    0.7443    0.9218 C   0  0  2  0  0  0  0  0  0  0  0  0
    0.2157   -1.3862    1.8540 C   0  0  2  0  0  0  0  0  0  0  0  0
   -2.1233   -0.5058    1.4126 C   0  0  2  0  0  0  0  0  0  0  0  0
   -1.1774   -1.6968    1.2880 C   0  0  0  0  0  0  0  0  0  0  0  0
    2.0723    0.7912    0.4556 C   0  0  0  0  0  0  0  0  0  0  0  0
    2.2170   -0.6268    0.4144 C   0  0  0  0  0  0  0  0  0  0  0  0
    3.1370    1.5222   -0.1932 C   0  0  0  0  0  0  0  0  0  0  0  0
    3.4102   -1.1061   -0.2639 C   0  0  0  0  0  0  0  0  0  0  0  0
    1.2452    2.7710    0.5382 C   0  0  0  0  0  0  0  0  0  0  0  0
   -0.4775    1.9391    2.9581 C   0  0  0  0  0  0  0  0  0  0  0  0
    1.8656   -2.7416    0.5329 C   0  0  0  0  0  0  0  0  0  0  0  0
    2.5355    2.8451   -0.0691 C   0  0  0  0  0  0  0  0  0  0  0  0
    4.3069    1.0468   -0.7766 C   0  0  0  0  0  0  0  0  0  0  0  0
    4.4338   -0.3332   -0.8079 C   0  0  0  0  0  0  0  0  0  0  0  0
    3.0985   -2.5365   -0.1546 C   0  0  0  0  0  0  0  0  0  0  0  0
    5.4624    1.6991   -1.4586 C   0  0  0  0  0  0  0  0  0  0  0  0
    0.4346    3.9240    0.5931 C   0  0  0  0  0  0  0  0  0  0  0  0
    5.6845   -0.6602   -1.4897 C   0  0  0  0  0  0  0  0  0  0  0  0
    1.3679   -4.0422    0.7604 C   0  0  0  0  0  0  0  0  0  0  0  0
    2.9980    4.1084   -0.5180 C   0  0  0  0  0  0  0  0  0  0  0  0
   -3.4494   -2.0133   -0.0255 C   0  0  0  0  0  0  0  0  0  0  0  0
    3.7866   -3.6916   -0.6064 C   0  0  0  0  0  0  0  0  0  0  0  0
   -4.3889    0.2109    0.6679 C   0  0  0  0  0  0  0  0  0  0  0  0
   -2.1421    0.7774   -1.3202 C   0  0  0  0  0  0  0  0  0  0  0  0
    0.9250    5.1476    0.1300 C   0  0  0  0  0  0  0  0  0  0  0  0
    2.1981    5.2449   -0.4044 C   0  0  0  0  0  0  0  0  0  0  0  0
    2.0835   -5.1453    0.2974 C   0  0  0  0  0  0  0  0  0  0  0  0
    3.2789   -4.9739   -0.3792 C   0  0  0  0  0  0  0  0  0  0  0  0
   -5.6181   -0.1011   -0.0787 C   0  0  0  0  0  0  0  0  0  0  0  0
   -5.7260    0.2509   -1.4241 C   0  0  0  0  0  0  0  0  0  0  0  0
   -6.6757   -0.7495    0.5595 C   0  0  0  0  0  0  0  0  0  0  0  0
   -6.8912   -0.0454   -2.1314 C   0  0  0  0  0  0  0  0  0  0  0  0
   -7.8409   -1.0455   -0.1476 C   0  0  0  0  0  0  0  0  0  0  0  0
   -7.9486   -0.6937   -1.4932 C   0  0  0  0  0  0  0  0  0  0  0  0
   -2.0146    1.6474    0.9793 H   0  0  0  0  0  0  0  0  0  0  0  0
    0.4223   -2.1303    2.6342 H   0  0  0  0  0  0  0  0  0  0  0  0
   -2.4052   -0.3650    2.4642 H   0  0  0  0  0  0  0  0  0  0  0  0
   -1.5837   -2.5507    1.8458 H   0  0  0  0  0  0  0  0  0  0  0  0
   -1.0314   -2.0387    0.2590 H   0  0  0  0  0  0  0  0  0  0  0  0
   -1.1091    1.4225    3.6923 H   0  0  0  0  0  0  0  0  0  0  0  0
   -1.0203    2.8373    2.6619 H   0  0  0  0  0  0  0  0  0  0  0  0
    0.4273    2.2480    3.4959 H   0  0  0  0  0  0  0  0  0  0  0  0
    5.1634    2.2475   -2.3551 H   0  0  0  0  0  0  0  0  0  0  0  0
    6.0476    2.3250   -0.7808 H   0  0  0  0  0  0  0  0  0  0  0  0
   -0.5803    3.8876    0.9708 H   0  0  0  0  0  0  0  0  0  0  0  0
    0.4322   -4.1984    1.2893 H   0  0  0  0  0  0  0  0  0  0  0  0
    3.9776    4.1996   -0.9805 H   0  0  0  0  0  0  0  0  0  0  0  0
   -2.6918   -2.1045   -0.8062 H   0  0  0  0  0  0  0  0  0  0  0  0
   -4.4078   -2.1356   -0.5322 H   0  0  0  0  0  0  0  0  0  0  0  0
   -3.3863   -2.8405    0.6877 H   0  0  0  0  0  0  0  0  0  0  0  0
    4.7245   -3.6066   -1.1434 H   0  0  0  0  0  0  0  0  0  0  0  0
    7.1419    0.6295   -2.3446 H   0  0  0  0  0  0  0  0  0  0  0  0
   -1.7125    1.1554   -2.2553 H   0  0  0  0  0  0  0  0  0  0  0  0
   -2.8167    1.5632   -0.9726 H   0  0  0  0  0  0  0  0  0  0  0  0
   -2.6486   -0.1397   -1.6066 H   0  0  0  0  0  0  0  0  0  0  0  0
    0.2949    6.0314    0.1863 H   0  0  0  0  0  0  0  0  0  0  0  0
    2.5665    6.2023   -0.7616 H   0  0  0  0  0  0  0  0  0  0  0  0
    1.6982   -6.1464    0.4702 H   0  0  0  0  0  0  0  0  0  0  0  0
    3.8282   -5.8402   -0.7371 H   0  0  0  0  0  0  0  0  0  0  0  0
   -4.9103    0.7648   -1.9238 H   0  0  0  0  0  0  0  0  0  0  0  0
   -6.6017   -1.0286    1.6074 H   0  0  0  0  0  0  0  0  0  0  0  0
   -8.6641   -1.5504    0.3493 H   0  0  0  0  0  0  0  0  0  0  0  0
   -8.8626   -0.9311   -2.0315 H   0  0  0  0  0  0  0  0  0  0  0  0
  1 42  1  0  0  0  0
  2 10  1  0  0  0  0
  2 12  1  0  0  0  0
  3 11  1  0  0  0  0
  3 34  1  0  0  0  0
  4 28  2  0  0  0  0
  5 33  2  0  0  0  0
  6 10  1  0  0  0  0
  6 15  1  0  0  0  0
  6 19  1  0  0  0  0
  7 12  1  0  0  0  0
  7 16  1  0  0  0  0
  7 21  1  0  0  0  0
  8 13  1  0  0  0  0
  8 31  1  0  0  0  0
  8 33  1  0  0  0  0
  9 26  1  0  0  0  0
  9 28  1  0  0  0  0
  9 62  1  0  0  0  0
 10 11  1  0  0  0  0
 10 20  1  0  0  0  0
 11 13  1  0  0  0  0
 11 45  1  0  0  0  0
 12 14  1  0  0  0  0
 12 46  1  0  0  0  0
 13 14  1  0  0  0  0
 13 47  1  0  0  0  0
 14 48  1  0  0  0  0
 14 49  1  0  0  0  0
 15 16  2  0  0  0  0
 15 17  1  0  0  0  0
 16 18  1  0  0  0  0
 17 22  1  0  0  0  0
 17 23  2  0  0  0  0
 18 24  2  0  0  0  0
 18 25  1  0  0  0  0
 19 22  1  0  0  0  0
 19 27  2  0  0  0  0
 20 50  1  0  0  0  0
 20 51  1  0  0  0  0
 20 52  1  0  0  0  0
 21 25  1  0  0  0  0
 21 29  2  0  0  0  0
 22 30  2  0  0  0  0
 23 24  1  0  0  0  0
 23 26  1  0  0  0  0
 24 28  1  0  0  0  0
 25 32  2  0  0  0  0
 26 53  1  0  0  0  0
 26 54  1  0  0  0  0
 27 35  1  0  0  0  0
 27 55  1  0  0  0  0
 29 37  1  0  0  0  0
 29 56  1  0  0  0  0
 30 36  1  0  0  0  0
 30 57  1  0  0  0  0
 31 58  1  0  0  0  0
 31 59  1  0  0  0  0
 31 60  1  0  0  0  0
 32 38  1  0  0  0  0
 32 61  1  0  0  0  0
 33 39  1  0  0  0  0
 34 63  1  0  0  0  0
 34 64  1  0  0  0  0
 34 65  1  0  0  0  0
 35 36  2  0  0  0  0
 35 66  1  0  0  0  0
 36 67  1  0  0  0  0
 37 38  2  0  0  0  0
 37 68  1  0  0  0  0
 38 69  1  0  0  0  0
 39 40  2  0  0  0  0
 39 41  1  0  0  0  0
 40 42  1  0  0  0  0
 40 70  1  0  0  0  0
 41 43  2  0  0  0  0
 41 71  1  0  0  0  0
 42 44  2  0  0  0  0
 43 44  1  0  0  0  0
 43 72  1  0  0  0  0
 44 73  1  0  0  0  0
M  END
> <PUBCHEM_COMPOUND_CID>
44352890

> <PUBCHEM_CONFORMER_RMSD>
1

> <PUBCHEM_CONFORMER_DIVERSEORDER>
1
11
10
5
7
12
2
6
9
4
3
8

> <PUBCHEM_MMFF94_PARTIAL_CHARGES>
53
1 -0.18
10 0.54
11 0.28
12 0.54
13 0.3
15 -0.05
16 -0.05
17 -0.01
18 -0.01
19 -0.15
2 -0.56
21 -0.15
23 -0.14
24 0.09
26 0.44
27 -0.15
28 0.54
29 -0.15
3 -0.56
30 -0.15
31 0.3
32 -0.15
33 0.54
34 0.28
35 -0.15
36 -0.15
37 -0.15
38 -0.15
39 0.09
4 -0.57
40 -0.15
41 -0.15
42 0.18
43 -0.15
44 -0.15
5 -0.57
55 0.15
56 0.15
57 0.15
6 -0.04
61 0.15
62 0.37
66 0.15
67 0.15
68 0.15
69 0.15
7 -0.04
70 0.15
71 0.15
72 0.15
73 0.15
8 -0.66
9 -0.73

> <PUBCHEM_EFFECTIVE_ROTOR_COUNT>
5.2

> <PUBCHEM_PHARMACOPHORE_FEATURES>
16
1 2 acceptor
1 3 acceptor
1 4 acceptor
1 5 acceptor
1 6 cation
1 7 cation
1 9 donor
5 6 15 17 19 22 rings
5 7 16 18 21 25 rings
5 9 23 24 26 28 rings
6 15 16 17 18 23 24 rings
6 19 22 27 30 35 36 rings
6 2 10 11 12 13 14 rings
6 21 25 29 32 37 38 rings
6 39 40 41 42 43 44 rings
7 2 6 7 10 12 15 16 rings

> <PUBCHEM_HEAVY_ATOM_COUNT>
44

> <PUBCHEM_ATOM_DEF_STEREO_COUNT>
4

> <PUBCHEM_ATOM_UDEF_STEREO_COUNT>
0

> <PUBCHEM_BOND_DEF_STEREO_COUNT>
0

> <PUBCHEM_BOND_UDEF_STEREO_COUNT>
0

> <PUBCHEM_ISOTOPIC_ATOM_COUNT>
0

> <PUBCHEM_COMPONENT_COUNT>
1

> <PUBCHEM_CACTVS_TAUTO_COUNT>
2

> <PUBCHEM_CONFORMER_ID>
02A4C57A00000001

> <PUBCHEM_MMFF94_ENERGY>
205.702

> <PUBCHEM_FEATURE_SELFOVERLAP>
82.158

> <PUBCHEM_SHAPE_FINGERPRINT>
10556698 54 17753299034688345077
10622 236 18057319488340940811
10675989 125 18340209699303516881
10693767 8 18202007590641753438
11115154 58 17917717881597003137
11135609 149 18196347265920943789
11135926 11 18337687355294332522
12608794 3 17977071855747665136
1361 2 18411422851209649162
13636023 20 18342174415097234216
13911987 19 18190488076421668684
14068700 675 18060145306228155056
14415360 78 18192991754149790500
15082195 135 18411131476708478267
15324884 4 17608953206140790480
15328829 1 17631474323014289395
15439362 3 18051417558878752532
15444296 8 17622457038628074870
15484559 13 18411419531580530006
15927050 60 17544215787728462212
15950262 2 15359129142241855222
19319366 153 18128809923151528561
20775438 99 17913196835369039188
21133410 171 17392449148667589987
21968339 14 18260819380478090363
22121540 332 17459446954003753357
23522609 53 17844553053632296417
23559900 14 18340207513402202177
23569914 152 17544442308566895079
24771750 20 17972334068195371813
3388396 114 18265634091221424318
3504750 166 16531999777470283338
376196 1 17898561244739663593
3882209 13 17900244322459845874
4015057 19 18335427820729844243
4066623 53 18114738223210536228
42767 46 16845280666845356191
4353968 344 18123762955213480350
45266715 3 18272087240950057264
46194498 28 18261101964094238775
57527452 28 15841284687562399836
6004065 56 18411984697768276360
6058803 2 17767985142274526762

> <PUBCHEM_SHAPE_MULTIPOLES>
863.97
16.29
6.11
2.21
32.68
0.64
0.59
-4.12
14.22
-10.51
-0.32
2.53
0.45
0.25

> <PUBCHEM_SHAPE_SELFOVERLAP>
1975.808

> <PUBCHEM_SHAPE_VOLUME>
448.2

> <PUBCHEM_COORDINATE_TYPE>
2
5
10

$$$$
