136027070
  -OEChem-10052115193D

 38 41  0     0  0  0  0  0  0999 V2000
    6.8866    2.3867   -0.4500 Cl  0  0  0  0  0  0  0  0  0  0  0  0
   -6.0809    2.0307    0.5299 O   0  0  0  0  0  0  0  0  0  0  0  0
   -2.0551   -1.0988   -1.8949 N   0  0  0  0  0  0  0  0  0  0  0  0
   -4.8022    0.7632   -0.9128 N   0  0  0  0  0  0  0  0  0  0  0  0
   -3.2615   -0.5904   -2.2246 N   0  0  0  0  0  0  0  0  0  0  0  0
   -2.6626   -0.0452   -0.0986 C   0  0  0  0  0  0  0  0  0  0  0  0
   -1.6477   -0.7988   -0.6230 C   0  0  0  0  0  0  0  0  0  0  0  0
   -0.3828   -1.2626   -0.1095 C   0  0  0  0  0  0  0  0  0  0  0  0
   -3.6292    0.0561   -1.1157 C   0  0  0  0  0  0  0  0  0  0  0  0
   -2.8666    0.5755    1.1610 C   0  0  0  0  0  0  0  0  0  0  0  0
    0.7635   -0.4842   -0.2692 C   0  0  0  0  0  0  0  0  0  0  0  0
    1.9868   -0.9340    0.2278 C   0  0  0  0  0  0  0  0  0  0  0  0
   -4.0026    1.2668    1.3738 C   0  0  0  0  0  0  0  0  0  0  0  0
   -0.3059   -2.4907    0.5475 C   0  0  0  0  0  0  0  0  0  0  0  0
   -1.8060    0.4357    2.2070 C   0  0  0  0  0  0  0  0  0  0  0  0
   -5.0553    1.3911    0.3009 C   0  0  0  0  0  0  0  0  0  0  0  0
    3.1762   -0.1271    0.0621 C   0  0  0  0  0  0  0  0  0  0  0  0
    2.0637   -2.1622    0.8847 C   0  0  0  0  0  0  0  0  0  0  0  0
    0.9174   -2.9405    1.0444 C   0  0  0  0  0  0  0  0  0  0  0  0
    4.4248   -0.7399   -0.0444 C   0  0  0  0  0  0  0  0  0  0  0  0
    3.0749    1.2630    0.0098 C   0  0  0  0  0  0  0  0  0  0  0  0
    5.5720    0.0374   -0.2029 C   0  0  0  0  0  0  0  0  0  0  0  0
    4.2220    2.0405   -0.1485 C   0  0  0  0  0  0  0  0  0  0  0  0
    5.4706    1.4277   -0.2549 C   0  0  0  0  0  0  0  0  0  0  0  0
   -1.5632   -1.6440   -2.5921 H   0  0  0  0  0  0  0  0  0  0  0  0
    0.6778    0.4543   -0.8124 H   0  0  0  0  0  0  0  0  0  0  0  0
   -5.4713    0.8102   -1.6741 H   0  0  0  0  0  0  0  0  0  0  0  0
   -4.2083    1.7600    2.3179 H   0  0  0  0  0  0  0  0  0  0  0  0
   -1.1907   -3.1084    0.6825 H   0  0  0  0  0  0  0  0  0  0  0  0
   -0.8592    0.8713    1.8730 H   0  0  0  0  0  0  0  0  0  0  0  0
   -1.6509   -0.6134    2.4773 H   0  0  0  0  0  0  0  0  0  0  0  0
   -2.0845    0.9595    3.1290 H   0  0  0  0  0  0  0  0  0  0  0  0
    2.9871   -2.5393    1.3154 H   0  0  0  0  0  0  0  0  0  0  0  0
    0.9752   -3.8935    1.5623 H   0  0  0  0  0  0  0  0  0  0  0  0
    4.5496   -1.8193   -0.0402 H   0  0  0  0  0  0  0  0  0  0  0  0
    2.1288    1.7859    0.1203 H   0  0  0  0  0  0  0  0  0  0  0  0
    6.5379   -0.4534   -0.2912 H   0  0  0  0  0  0  0  0  0  0  0  0
    4.1294    3.1231   -0.1804 H   0  0  0  0  0  0  0  0  0  0  0  0
  1 24  1  0  0  0  0
  2 16  2  0  0  0  0
  3  5  1  0  0  0  0
  3  7  1  0  0  0  0
  3 25  1  0  0  0  0
  4  9  1  0  0  0  0
  4 16  1  0  0  0  0
  4 27  1  0  0  0  0
  5  9  2  0  0  0  0
  6  7  2  0  0  0  0
  6  9  1  0  0  0  0
  6 10  1  0  0  0  0
  7  8  1  0  0  0  0
  8 11  1  0  0  0  0
  8 14  2  0  0  0  0
 10 13  2  0  0  0  0
 10 15  1  0  0  0  0
 11 12  2  0  0  0  0
 11 26  1  0  0  0  0
 12 17  1  0  0  0  0
 12 18  1  0  0  0  0
 13 16  1  0  0  0  0
 13 28  1  0  0  0  0
 14 19  1  0  0  0  0
 14 29  1  0  0  0  0
 15 30  1  0  0  0  0
 15 31  1  0  0  0  0
 15 32  1  0  0  0  0
 17 20  2  0  0  0  0
 17 21  1  0  0  0  0
 18 19  2  0  0  0  0
 18 33  1  0  0  0  0
 19 34  1  0  0  0  0
 20 22  1  0  0  0  0
 20 35  1  0  0  0  0
 21 23  2  0  0  0  0
 21 36  1  0  0  0  0
 22 24  2  0  0  0  0
 22 37  1  0  0  0  0
 23 24  1  0  0  0  0
 23 38  1  0  0  0  0
M  END
> <PUBCHEM_COMPOUND_CID>
136027070

> <PUBCHEM_CONFORMER_RMSD>
0.6

> <PUBCHEM_CONFORMER_DIVERSEORDER>
1
5
4
3
6
2

> <PUBCHEM_MMFF94_PARTIAL_CHARGES>
33
1 -0.18
10 -0.09
11 -0.15
13 -0.14
14 -0.15
15 0.14
16 0.62
18 -0.15
19 -0.15
2 -0.57
20 -0.15
21 -0.15
22 -0.15
23 -0.15
24 0.18
25 0.27
26 0.15
27 0.37
28 0.15
29 0.15
3 0.3
33 0.15
34 0.15
35 0.15
36 0.15
37 0.15
38 0.15
4 -0.49
5 -0.71
6 -0.05
7 -0.2
8 0.05
9 0.35

> <PUBCHEM_EFFECTIVE_ROTOR_COUNT>
2

> <PUBCHEM_PHARMACOPHORE_FEATURES>
7
1 2 acceptor
1 3 donor
1 4 donor
5 3 5 6 7 9 rings
6 17 20 21 22 23 24 rings
6 4 6 9 10 13 16 rings
6 8 11 12 14 18 19 rings

> <PUBCHEM_HEAVY_ATOM_COUNT>
24

> <PUBCHEM_ATOM_DEF_STEREO_COUNT>
0

> <PUBCHEM_ATOM_UDEF_STEREO_COUNT>
0

> <PUBCHEM_BOND_DEF_STEREO_COUNT>
0

> <PUBCHEM_BOND_UDEF_STEREO_COUNT>
0

> <PUBCHEM_ISOTOPIC_ATOM_COUNT>
0

> <PUBCHEM_COMPONENT_COUNT>
1

> <PUBCHEM_CACTVS_TAUTO_COUNT>
-1

> <PUBCHEM_CONFORMER_ID>
081B9BBE00000001

> <PUBCHEM_MMFF94_ENERGY>
70.5044

> <PUBCHEM_FEATURE_SELFOVERLAP>
35.638

> <PUBCHEM_SHAPE_FINGERPRINT>
10 15 16081089311994747564
10319926 262 14924213873126747514
10871710 139 18201444636256299233
10906281 52 18338527438861600788
11640471 11 18201158758916452131
12236239 1 18201434749167165207
12390115 104 18261684778187202758
12403259 118 16226045626107162718
12788726 201 17488746649582363297
12892183 10 14924210600219262618
13544653 18 10807941479000520330
13583140 156 15285902728477872270
13631057 29 18266171919832717687
13947920 75 17275389793972049168
13994607 96 18271538579819995555
14840074 17 18271531914237090865
14848178 96 18337948017286859280
15064981 113 16772961290066287340
15183329 4 17703801293190385548
15188451 53 12035448358882226213
15342168 16 18335704927218113183
15475509 35 15503212259844631578
15575132 122 18129947759026279225
17780758 139 12468622950640062308
17870717 6 15195569017634625165
1813 80 17550667716843384446
19784866 34 18407758140426426450
204376 136 18259703415115537410
20511986 3 18130774647077180352
20642791 239 17918269862056043121
21033648 144 18260539048358287270
21033648 29 17022893519546929022
21033650 10 14764085418904765250
21120745 212 16597068317403159662
21756936 100 18341897436735166930
22122407 14 18193567662135614513
23559900 14 15769478894202894851
23845131 108 18113340808077243491
2838139 119 18272087210511045120
3472631 163 18201721747292672213
34797466 226 15625934404560138816
350125 39 18044664340926960322
38570 142 18341346508590171614
4340502 62 18187660059421554515
474 4 18410854339231712786
5104073 3 17895747534982156394
5718773 13 10591498174488509908
57724786 102 18113339721919424148
59755656 520 18408887351610941318
6034566 193 17970080047962657428
633830 44 18411980256629771598
6371380 46 12545978962474253290
7288768 16 18113623399481050715

> <PUBCHEM_SHAPE_MULTIPOLES>
474.97
14.03
2.6
1.46
8.31
0.85
0.1
-13.13
1.3
1.62
-0.62
-2.11
0.12
-1.39

> <PUBCHEM_SHAPE_SELFOVERLAP>
1058.332

> <PUBCHEM_SHAPE_VOLUME>
255

> <PUBCHEM_COORDINATE_TYPE>
2
5
10

$$$$
