49830274
  -OEChem-10052120433D

 29 31  0     0  0  0  0  0  0999 V2000
    0.9040    2.4632    0.0110 Cl  0  0  0  0  0  0  0  0  0  0  0  0
   -5.2629    0.3968    1.0986 O   0  0  0  0  0  0  0  0  0  0  0  0
    2.7842   -2.0721   -0.0112 N   0  0  0  0  0  0  0  0  0  0  0  0
    4.4803   -0.3613   -0.0138 N   0  0  0  0  0  0  0  0  0  0  0  0
   -5.2780    0.3868   -1.1945 N   0  0  0  0  0  0  0  0  0  0  0  0
    0.9387   -0.8288    0.0013 C   0  0  0  0  0  0  0  0  0  0  0  0
    2.0613    0.0410   -0.0021 C   0  0  0  0  0  0  0  0  0  0  0  0
   -0.4703   -0.5542    0.0090 C   0  0  0  0  0  0  0  0  0  0  0  0
    3.1958   -0.7653   -0.0096 C   0  0  0  0  0  0  0  0  0  0  0  0
    1.4143   -2.1224   -0.0040 C   0  0  0  0  0  0  0  0  0  0  0  0
    2.2567    1.4315    0.0009 C   0  0  0  0  0  0  0  0  0  0  0  0
   -1.1483   -0.4235    1.2210 C   0  0  0  0  0  0  0  0  0  0  0  0
   -1.1613   -0.4172   -1.1949 C   0  0  0  0  0  0  0  0  0  0  0  0
   -3.2082   -0.0191    0.0251 C   0  0  0  0  0  0  0  0  0  0  0  0
   -2.5173   -0.1560    1.2291 C   0  0  0  0  0  0  0  0  0  0  0  0
   -2.5302   -0.1497   -1.1869 C   0  0  0  0  0  0  0  0  0  0  0  0
    3.5677    1.9046   -0.0030 C   0  0  0  0  0  0  0  0  0  0  0  0
    4.6089    0.9861   -0.0098 C   0  0  0  0  0  0  0  0  0  0  0  0
   -4.6354    0.2594    0.0337 C   0  0  0  0  0  0  0  0  0  0  0  0
    0.9067   -3.0778   -0.0035 H   0  0  0  0  0  0  0  0  0  0  0  0
    3.3975   -2.8753   -0.0161 H   0  0  0  0  0  0  0  0  0  0  0  0
   -0.6243   -0.5261    2.1685 H   0  0  0  0  0  0  0  0  0  0  0  0
   -0.6465   -0.5150   -2.1480 H   0  0  0  0  0  0  0  0  0  0  0  0
   -3.0232   -0.0584    2.1860 H   0  0  0  0  0  0  0  0  0  0  0  0
   -3.0014   -0.0553   -2.1577 H   0  0  0  0  0  0  0  0  0  0  0  0
    3.7813    2.9689   -0.0005 H   0  0  0  0  0  0  0  0  0  0  0  0
    5.6375    1.3373   -0.0127 H   0  0  0  0  0  0  0  0  0  0  0  0
   -4.8453    0.2952   -2.1044 H   0  0  0  0  0  0  0  0  0  0  0  0
   -6.2729    0.5881   -1.2154 H   0  0  0  0  0  0  0  0  0  0  0  0
  1 11  1  0  0  0  0
  2 19  2  0  0  0  0
  3  9  1  0  0  0  0
  3 10  1  0  0  0  0
  3 21  1  0  0  0  0
  4  9  2  0  0  0  0
  4 18  1  0  0  0  0
  5 19  1  0  0  0  0
  5 28  1  0  0  0  0
  5 29  1  0  0  0  0
  6  7  1  0  0  0  0
  6  8  1  0  0  0  0
  6 10  2  0  0  0  0
  7  9  1  0  0  0  0
  7 11  2  0  0  0  0
  8 12  2  0  0  0  0
  8 13  1  0  0  0  0
 10 20  1  0  0  0  0
 11 17  1  0  0  0  0
 12 15  1  0  0  0  0
 12 22  1  0  0  0  0
 13 16  2  0  0  0  0
 13 23  1  0  0  0  0
 14 15  2  0  0  0  0
 14 16  1  0  0  0  0
 14 19  1  0  0  0  0
 15 24  1  0  0  0  0
 16 25  1  0  0  0  0
 17 18  2  0  0  0  0
 17 26  1  0  0  0  0
 18 27  1  0  0  0  0
M  END
> <PUBCHEM_COMPOUND_CID>
49830274

> <PUBCHEM_CONFORMER_RMSD>
0.6

> <PUBCHEM_CONFORMER_DIVERSEORDER>
1
2

> <PUBCHEM_MMFF94_PARTIAL_CHARGES>
28
1 -0.18
10 -0.3
11 0.18
12 -0.15
13 -0.15
14 0.09
15 -0.15
16 -0.15
17 -0.15
18 0.16
19 0.54
2 -0.57
20 0.15
21 0.27
22 0.15
23 0.15
24 0.15
25 0.15
26 0.15
27 0.15
28 0.37
29 0.37
3 0.03
4 -0.57
5 -0.8
6 -0.05
8 0.05
9 0.11

> <PUBCHEM_EFFECTIVE_ROTOR_COUNT>
2

> <PUBCHEM_PHARMACOPHORE_FEATURES>
7
1 2 acceptor
1 3 donor
1 5 donor
3 3 4 9 cation
5 3 6 7 9 10 rings
6 4 7 9 11 17 18 rings
6 8 12 13 14 15 16 rings

> <PUBCHEM_HEAVY_ATOM_COUNT>
19

> <PUBCHEM_ATOM_DEF_STEREO_COUNT>
0

> <PUBCHEM_ATOM_UDEF_STEREO_COUNT>
0

> <PUBCHEM_BOND_DEF_STEREO_COUNT>
0

> <PUBCHEM_BOND_UDEF_STEREO_COUNT>
0

> <PUBCHEM_ISOTOPIC_ATOM_COUNT>
0

> <PUBCHEM_COMPONENT_COUNT>
1

> <PUBCHEM_CACTVS_TAUTO_COUNT>
9

> <PUBCHEM_CONFORMER_ID>
02F8598200000001

> <PUBCHEM_MMFF94_ENERGY>
52.2032

> <PUBCHEM_FEATURE_SELFOVERLAP>
35.633

> <PUBCHEM_SHAPE_FINGERPRINT>
10354089 29 18342464742001483369
10411042 1 17978510837327542486
10688039 33 17967533441467563901
11471102 20 18410292514881183940
11796584 16 14979965765696515708
12236239 1 17704071785086484710
12633257 1 17241317105321832952
12730499 353 18260835899027922915
13140716 1 18265608961346676194
13581323 91 14779259821713030770
13583140 156 18409449232787152551
13760787 19 18060415833354333479
14386348 63 17748830708698505755
15342168 16 18190184666382501420
15375358 24 17967532376251629971
16752209 62 16271929281553150835
16945 1 18410856560489258510
17834072 33 18343014528159957831
1813 80 17699582342363068606
18186145 218 18411976970636684270
18785283 64 17751936945170014925
19862831 5 17489871569729720054
200 152 18202562882572903379
20600515 1 15936415563020990487
20645476 183 17846775256510099719
20645477 70 18412545370935564526
21033648 29 17895181217421492317
21267235 1 18341059523302477238
22289505 5 18335692798067179645
22854114 59 18186521011949625943
23402539 116 15339117922920577041
23402655 69 18272651263753648478
23557571 272 16660923283745239246
23559900 14 16877945979831660114
25 1 18408881875880566446
3060560 45 18273498962045381686
335352 9 18411138057151633750
3545911 37 18409452509419710579
4072396 5 18335124394232812010
4409770 3 15464135362694919247
474 4 18339642347103062032
5104073 3 18336826493281512803
542803 24 17704073992968563779
602551 16 16153999048433294353
77492 1 17703791413974482322
8272917 22 18270970046140375647
9981440 41 16764482178314719544

> <PUBCHEM_SHAPE_MULTIPOLES>
372.07
9.82
1.89
1.03
6.93
0.29
0
2.29
0.15
-2.29
0
1.17
-0.03
0.02

> <PUBCHEM_SHAPE_SELFOVERLAP>
825.755

> <PUBCHEM_SHAPE_VOLUME>
201.2

> <PUBCHEM_COORDINATE_TYPE>
2
5
10

$$$$
