17758020
  -OEChem-10062122013D

 58 61  0     0  0  0  0  0  0999 V2000
   -6.3199   -2.3009    1.2927 Br  0  0  0  0  0  0  0  0  0  0  0  0
    3.3003    2.9939   -1.8279 Cl  0  0  0  0  0  0  0  0  0  0  0  0
    3.4672    2.5914    1.1045 F   0  0  0  0  0  0  0  0  0  0  0  0
    2.4554   -2.1725    0.3692 N   0  0  0  0  0  0  0  0  0  0  0  0
    5.9780    0.2168    0.2840 N   0  0  0  0  0  0  0  0  0  0  0  0
   -1.7536   -3.4504   -1.0291 N   0  0  0  0  0  0  0  0  0  0  0  0
    2.0015   -3.2297    1.0335 N   0  0  0  0  0  0  0  0  0  0  0  0
    0.9184   -3.6776    0.3780 N   0  0  0  0  0  0  0  0  0  0  0  0
   -1.5728    1.6645   -0.9821 N   0  0  0  0  0  0  0  0  0  0  0  0
   -5.2009    0.5312    0.8079 N   0  0  0  0  0  0  0  0  0  0  0  0
   -3.1532    4.7798   -0.1058 N   0  0  0  0  0  0  0  0  0  0  0  0
    4.9014   -1.9821    0.1773 C   0  0  0  0  0  0  0  0  0  0  0  0
    3.6136   -1.4336    0.7914 C   0  0  0  0  0  0  0  0  0  0  0  0
    6.1164   -1.1874    0.6510 C   0  0  0  0  0  0  0  0  0  0  0  0
   -0.4959   -3.1748   -1.6529 C   0  0  0  0  0  0  0  0  0  0  0  0
    0.6492   -2.9220   -0.7214 C   0  0  0  0  0  0  0  0  0  0  0  0
    1.6381   -1.9707   -0.7082 C   0  0  0  0  0  0  0  0  0  0  0  0
   -3.1254   -0.0849   -0.2507 C   0  0  0  0  0  0  0  0  0  0  0  0
   -2.6184   -2.4373   -0.5681 C   0  0  0  0  0  0  0  0  0  0  0  0
   -2.2664   -1.0981   -0.7091 C   0  0  0  0  0  0  0  0  0  0  0  0
   -2.7959    1.2710   -0.3799 C   0  0  0  0  0  0  0  0  0  0  0  0
   -4.3547   -0.4146    0.3578 C   0  0  0  0  0  0  0  0  0  0  0  0
   -3.8277   -2.7691    0.0301 C   0  0  0  0  0  0  0  0  0  0  0  0
    6.7816    1.0626    1.1683 C   0  0  0  0  0  0  0  0  0  0  0  0
    6.3690    0.4260   -1.1114 C   0  0  0  0  0  0  0  0  0  0  0  0
   -4.6817   -1.7617    0.4857 C   0  0  0  0  0  0  0  0  0  0  0  0
   -3.6657    2.2477    0.0829 C   0  0  0  0  0  0  0  0  0  0  0  0
   -4.8452    1.8283    0.6641 C   0  0  0  0  0  0  0  0  0  0  0  0
   -0.2937    1.9004   -0.4573 C   0  0  0  0  0  0  0  0  0  0  0  0
    0.7474    2.2848   -1.3024 C   0  0  0  0  0  0  0  0  0  0  0  0
   -0.0627    1.7503    0.9100 C   0  0  0  0  0  0  0  0  0  0  0  0
   -3.3828    3.6453   -0.0212 C   0  0  0  0  0  0  0  0  0  0  0  0
    2.0195    2.5194   -0.7801 C   0  0  0  0  0  0  0  0  0  0  0  0
    1.2094    1.9846    1.4323 C   0  0  0  0  0  0  0  0  0  0  0  0
    2.2504    2.3692    0.5873 C   0  0  0  0  0  0  0  0  0  0  0  0
    4.8309   -1.9873   -0.9167 H   0  0  0  0  0  0  0  0  0  0  0  0
    5.0295   -3.0308    0.4749 H   0  0  0  0  0  0  0  0  0  0  0  0
    3.4432   -0.3929    0.4994 H   0  0  0  0  0  0  0  0  0  0  0  0
    3.6520   -1.4693    1.8863 H   0  0  0  0  0  0  0  0  0  0  0  0
    7.0411   -1.6279    0.2570 H   0  0  0  0  0  0  0  0  0  0  0  0
    6.1667   -1.2947    1.7430 H   0  0  0  0  0  0  0  0  0  0  0  0
   -0.2205   -4.0704   -2.2260 H   0  0  0  0  0  0  0  0  0  0  0  0
   -0.5696   -2.3863   -2.4116 H   0  0  0  0  0  0  0  0  0  0  0  0
    1.8298   -1.1525   -1.3890 H   0  0  0  0  0  0  0  0  0  0  0  0
   -2.0310   -4.4136   -0.8770 H   0  0  0  0  0  0  0  0  0  0  0  0
   -1.3271   -0.8201   -1.1743 H   0  0  0  0  0  0  0  0  0  0  0  0
   -4.1044   -3.8156    0.1409 H   0  0  0  0  0  0  0  0  0  0  0  0
    7.8482    0.8151    1.1193 H   0  0  0  0  0  0  0  0  0  0  0  0
    6.6589    2.1194    0.9056 H   0  0  0  0  0  0  0  0  0  0  0  0
    6.4484    0.9609    2.2072 H   0  0  0  0  0  0  0  0  0  0  0  0
    6.2587    1.4820   -1.3830 H   0  0  0  0  0  0  0  0  0  0  0  0
    7.4093    0.1360   -1.2995 H   0  0  0  0  0  0  0  0  0  0  0  0
    5.7239   -0.1323   -1.7969 H   0  0  0  0  0  0  0  0  0  0  0  0
   -1.6530    1.7894   -1.9871 H   0  0  0  0  0  0  0  0  0  0  0  0
   -5.5741    2.5360    1.0492 H   0  0  0  0  0  0  0  0  0  0  0  0
    0.5666    2.4011   -2.3689 H   0  0  0  0  0  0  0  0  0  0  0  0
   -0.8544    1.4506    1.5912 H   0  0  0  0  0  0  0  0  0  0  0  0
    1.3901    1.8664    2.4966 H   0  0  0  0  0  0  0  0  0  0  0  0
  1 26  1  0  0  0  0
  2 33  1  0  0  0  0
  3 35  1  0  0  0  0
  4  7  1  0  0  0  0
  4 13  1  0  0  0  0
  4 17  1  0  0  0  0
  5 14  1  0  0  0  0
  5 24  1  0  0  0  0
  5 25  1  0  0  0  0
  6 15  1  0  0  0  0
  6 19  1  0  0  0  0
  6 45  1  0  0  0  0
  7  8  2  0  0  0  0
  8 16  1  0  0  0  0
  9 21  1  0  0  0  0
  9 29  1  0  0  0  0
  9 54  1  0  0  0  0
 10 22  2  0  0  0  0
 10 28  1  0  0  0  0
 11 32  3  0  0  0  0
 12 13  1  0  0  0  0
 12 14  1  0  0  0  0
 12 36  1  0  0  0  0
 12 37  1  0  0  0  0
 13 38  1  0  0  0  0
 13 39  1  0  0  0  0
 14 40  1  0  0  0  0
 14 41  1  0  0  0  0
 15 16  1  0  0  0  0
 15 42  1  0  0  0  0
 15 43  1  0  0  0  0
 16 17  2  0  0  0  0
 17 44  1  0  0  0  0
 18 20  1  0  0  0  0
 18 21  2  0  0  0  0
 18 22  1  0  0  0  0
 19 20  2  0  0  0  0
 19 23  1  0  0  0  0
 20 46  1  0  0  0  0
 21 27  1  0  0  0  0
 22 26  1  0  0  0  0
 23 26  2  0  0  0  0
 23 47  1  0  0  0  0
 24 48  1  0  0  0  0
 24 49  1  0  0  0  0
 24 50  1  0  0  0  0
 25 51  1  0  0  0  0
 25 52  1  0  0  0  0
 25 53  1  0  0  0  0
 27 28  2  0  0  0  0
 27 32  1  0  0  0  0
 28 55  1  0  0  0  0
 29 30  2  0  0  0  0
 29 31  1  0  0  0  0
 30 33  1  0  0  0  0
 30 56  1  0  0  0  0
 31 34  2  0  0  0  0
 31 57  1  0  0  0  0
 33 35  2  0  0  0  0
 34 35  1  0  0  0  0
 34 58  1  0  0  0  0
M  END
> <PUBCHEM_COMPOUND_CID>
17758020

> <PUBCHEM_CONFORMER_RMSD>
1.2

> <PUBCHEM_CONFORMER_DIVERSEORDER>
3
18
47
52
76
4
154
80
110
123
17
39
157
94
138
45
50
53
113
6
160
133
71
98
46
49
124
116
44
69
99
127
129
14
162
105
60
136
153
22
115
149
79
135
62
29
68
102
87
142
70
38
114
35
100
158
112
164
103
43
54
12
16
151
141
161
65
144
5
118
26
63
40
48
64
104
131
150
15
77
84
36
85
10
130
66
91
163
107
31
128
156
61
74
13
140
106
111
146
139
8
19
159
81
23
108
132
121
51
89
92
165
143
120
109
33
72
166
41
97
122
125
96
155
134
148
88
126
9
20
78
7
32
86
93
24
117
83
90
57
147
119
152
75
145
59
28
42
82
67
95
30
55
34
137
11
21
56
27
1
101
73
58
37
2
25

> <PUBCHEM_MMFF94_PARTIAL_CHARGES>
42
1 -0.11
10 -0.62
11 -0.56
13 0.26
14 0.27
15 0.55
16 0.05
17 -0.3
19 0.1
2 -0.18
20 -0.15
21 0.1
22 0.31
23 -0.15
24 0.27
25 0.27
26 0.11
27 0.07
28 0.16
29 0.1
3 -0.19
30 -0.15
31 -0.15
32 0.48
33 0.18
34 -0.15
35 0.19
4 0.31
44 0.15
45 0.4
46 0.15
47 0.15
5 -0.81
54 0.4
55 0.15
56 0.15
57 0.15
58 0.15
6 -0.87
7 -0.42
8 -0.23
9 -0.6

> <PUBCHEM_EFFECTIVE_ROTOR_COUNT>
9

> <PUBCHEM_PHARMACOPHORE_FEATURES>
12
1 1 hydrophobe
1 10 acceptor
1 11 acceptor
1 5 cation
1 6 cation
1 6 donor
1 9 cation
1 9 donor
5 4 7 8 16 17 rings
6 10 18 21 22 27 28 rings
6 18 19 20 22 23 26 rings
6 29 30 31 33 34 35 rings

> <PUBCHEM_HEAVY_ATOM_COUNT>
35

> <PUBCHEM_ATOM_DEF_STEREO_COUNT>
0

> <PUBCHEM_ATOM_UDEF_STEREO_COUNT>
0

> <PUBCHEM_BOND_DEF_STEREO_COUNT>
0

> <PUBCHEM_BOND_UDEF_STEREO_COUNT>
0

> <PUBCHEM_ISOTOPIC_ATOM_COUNT>
0

> <PUBCHEM_COMPONENT_COUNT>
1

> <PUBCHEM_CACTVS_TAUTO_COUNT>
3

> <PUBCHEM_CONFORMER_ID>
010EF74400000003

> <PUBCHEM_MMFF94_ENERGY>
105.9461

> <PUBCHEM_FEATURE_SELFOVERLAP>
60.927

> <PUBCHEM_SHAPE_FINGERPRINT>
10290309 65 18269839709696463959
10864689 126 18198341746239605268
10939801 23 18266462182370031540
11513181 2 17988918916963401590
12107698 1 18334012826294856179
12156800 1 14185401338089158859
12422481 6 18413103983240684930
13111901 25 18410586093313267827
13140716 1 18338808836565647843
13726171 33 18268712718956884848
14020679 6 18040443178459881771
14117953 113 17763736590842711230
14394314 77 18051416463677357721
14415360 78 17757823434621329021
144659 178 18122057865390844516
14747282 125 17845373422181837366
14790565 3 18411417289765116300
14840074 17 18336271154511065128
15001296 14 18339637975063537000
15297060 5 18059856134997181866
15406563 190 18335409158495829440
15968369 153 18124317361679792722
16110190 28 18337952294578193162
19301679 30 18261686969390268067
20642791 178 18335712623609759628
23559900 14 18410002230964284649
24771293 8 18201446861967178179
338550 245 18336264660642027956
350125 39 18411983580907766275
392239 28 18188502392439538323
463206 1 18195245744232778746
469060 322 17313381198035754542
5047190 48 18049722915017546108
5265222 85 18267594670630450092
9543594 6 18340199795408930088

> <PUBCHEM_SHAPE_MULTIPOLES>
680.97
14.14
5.78
1.34
10.35
0.87
-0.15
-1.92
4.59
-2.48
-0.78
0.72
0.08
-0.48

> <PUBCHEM_SHAPE_SELFOVERLAP>
1443.823

> <PUBCHEM_SHAPE_VOLUME>
388.1

> <PUBCHEM_COORDINATE_TYPE>
2
5
10

$$$$
