25057409
  -OEChem-10062122033D

 60 63  0     0  0  0  0  0  0999 V2000
    3.2124   -2.7910   -0.5451 O   0  0  0  0  0  0  0  0  0  0  0  0
   -2.7566    3.3112    0.2989 O   0  0  0  0  0  0  0  0  0  0  0  0
   -5.3211    3.9760   -0.5424 O   0  0  0  0  0  0  0  0  0  0  0  0
   -4.5082   -2.2952   -0.3427 O   0  0  0  0  0  0  0  0  0  0  0  0
    7.6086    1.5743   -0.7726 N   0  0  0  0  0  0  0  0  0  0  0  0
    2.0280   -0.8653    0.1005 N   0  0  0  0  0  0  0  0  0  0  0  0
   -2.9202   -1.6561    1.2223 N   0  0  0  0  0  0  0  0  0  0  0  0
    6.0478    3.1762    0.2392 C   0  0  0  0  0  0  0  0  0  0  0  0
    4.9937    2.0987    0.2255 C   0  0  0  0  0  0  0  0  0  0  0  0
    5.3294    0.7855   -0.1496 C   0  0  0  0  0  0  0  0  0  0  0  0
    7.4685    2.6089    0.2513 C   0  0  0  0  0  0  0  0  0  0  0  0
    6.7610    0.4191   -0.4549 C   0  0  0  0  0  0  0  0  0  0  0  0
    4.3339   -0.2001   -0.1780 C   0  0  0  0  0  0  0  0  0  0  0  0
    3.6632    2.4142    0.5298 C   0  0  0  0  0  0  0  0  0  0  0  0
    3.0136    0.1218    0.1364 C   0  0  0  0  0  0  0  0  0  0  0  0
    2.6784    1.4276    0.4875 C   0  0  0  0  0  0  0  0  0  0  0  0
    2.1751   -2.2198   -0.2265 C   0  0  0  0  0  0  0  0  0  0  0  0
    0.9232   -3.0207   -0.2020 C   0  0  0  0  0  0  0  0  0  0  0  0
   -1.3089   -3.3898    0.6456 C   0  0  0  0  0  0  0  0  0  0  0  0
   -0.1337   -2.6388    0.6244 C   0  0  0  0  0  0  0  0  0  0  0  0
   -2.4400   -2.9800    1.5272 C   0  0  0  0  0  0  0  0  0  0  0  0
    0.8049   -4.1536   -1.0070 C   0  0  0  0  0  0  0  0  0  0  0  0
   -1.4271   -4.5228   -0.1592 C   0  0  0  0  0  0  0  0  0  0  0  0
   -0.3702   -4.9048   -0.9856 C   0  0  0  0  0  0  0  0  0  0  0  0
   -4.2927    0.0016    0.0778 C   0  0  0  0  0  0  0  0  0  0  0  0
   -3.9296   -1.4219    0.2986 C   0  0  0  0  0  0  0  0  0  0  0  0
   -3.3473    1.0044    0.2928 C   0  0  0  0  0  0  0  0  0  0  0  0
   -5.5796    0.3355   -0.3446 C   0  0  0  0  0  0  0  0  0  0  0  0
   -3.6886    2.3408    0.0855 C   0  0  0  0  0  0  0  0  0  0  0  0
   -4.9754    2.6745   -0.3369 C   0  0  0  0  0  0  0  0  0  0  0  0
   -5.9209    1.6718   -0.5520 C   0  0  0  0  0  0  0  0  0  0  0  0
   -1.4652    2.8860    0.7298 C   0  0  0  0  0  0  0  0  0  0  0  0
   -6.6563    4.2316   -0.9738 C   0  0  0  0  0  0  0  0  0  0  0  0
    5.9147    3.8163    1.1194 H   0  0  0  0  0  0  0  0  0  0  0  0
    5.9092    3.7998   -0.6532 H   0  0  0  0  0  0  0  0  0  0  0  0
    8.1801    3.4180    0.0524 H   0  0  0  0  0  0  0  0  0  0  0  0
    7.7159    2.2012    1.2398 H   0  0  0  0  0  0  0  0  0  0  0  0
    6.7859   -0.2583   -1.3160 H   0  0  0  0  0  0  0  0  0  0  0  0
    7.1772   -0.1195    0.4056 H   0  0  0  0  0  0  0  0  0  0  0  0
    8.5807    1.2704   -0.8199 H   0  0  0  0  0  0  0  0  0  0  0  0
    4.6604   -1.1938   -0.4514 H   0  0  0  0  0  0  0  0  0  0  0  0
    3.3883    3.4301    0.8014 H   0  0  0  0  0  0  0  0  0  0  0  0
    1.6529    1.6926    0.7321 H   0  0  0  0  0  0  0  0  0  0  0  0
    1.0943   -0.5179    0.2998 H   0  0  0  0  0  0  0  0  0  0  0  0
   -0.0572   -1.7871    1.2945 H   0  0  0  0  0  0  0  0  0  0  0  0
   -2.1095   -2.9802    2.5723 H   0  0  0  0  0  0  0  0  0  0  0  0
   -3.2771   -3.6841    1.4551 H   0  0  0  0  0  0  0  0  0  0  0  0
    1.6140   -4.4655   -1.6622 H   0  0  0  0  0  0  0  0  0  0  0  0
   -2.3368   -5.1172   -0.1548 H   0  0  0  0  0  0  0  0  0  0  0  0
   -0.4630   -5.7861   -1.6136 H   0  0  0  0  0  0  0  0  0  0  0  0
   -2.5210   -0.8938    1.7592 H   0  0  0  0  0  0  0  0  0  0  0  0
   -2.3447    0.7114    0.5776 H   0  0  0  0  0  0  0  0  0  0  0  0
   -6.3304   -0.4323   -0.5127 H   0  0  0  0  0  0  0  0  0  0  0  0
   -6.9385    1.8566   -0.8786 H   0  0  0  0  0  0  0  0  0  0  0  0
   -1.5057    2.3890    1.7051 H   0  0  0  0  0  0  0  0  0  0  0  0
   -0.9658    2.2765   -0.0313 H   0  0  0  0  0  0  0  0  0  0  0  0
   -0.8570    3.7874    0.8602 H   0  0  0  0  0  0  0  0  0  0  0  0
   -6.8548    3.7897   -1.9562 H   0  0  0  0  0  0  0  0  0  0  0  0
   -7.3898    3.9223   -0.2214 H   0  0  0  0  0  0  0  0  0  0  0  0
   -6.7562    5.3161   -1.0875 H   0  0  0  0  0  0  0  0  0  0  0  0
  1 17  2  0  0  0  0
  2 29  1  0  0  0  0
  2 32  1  0  0  0  0
  3 30  1  0  0  0  0
  3 33  1  0  0  0  0
  4 26  2  0  0  0  0
  5 11  1  0  0  0  0
  5 12  1  0  0  0  0
  5 40  1  0  0  0  0
  6 15  1  0  0  0  0
  6 17  1  0  0  0  0
  6 44  1  0  0  0  0
  7 21  1  0  0  0  0
  7 26  1  0  0  0  0
  7 51  1  0  0  0  0
  8  9  1  0  0  0  0
  8 11  1  0  0  0  0
  8 34  1  0  0  0  0
  8 35  1  0  0  0  0
  9 10  2  0  0  0  0
  9 14  1  0  0  0  0
 10 12  1  0  0  0  0
 10 13  1  0  0  0  0
 11 36  1  0  0  0  0
 11 37  1  0  0  0  0
 12 38  1  0  0  0  0
 12 39  1  0  0  0  0
 13 15  2  0  0  0  0
 13 41  1  0  0  0  0
 14 16  2  0  0  0  0
 14 42  1  0  0  0  0
 15 16  1  0  0  0  0
 16 43  1  0  0  0  0
 17 18  1  0  0  0  0
 18 20  1  0  0  0  0
 18 22  2  0  0  0  0
 19 20  2  0  0  0  0
 19 21  1  0  0  0  0
 19 23  1  0  0  0  0
 20 45  1  0  0  0  0
 21 46  1  0  0  0  0
 21 47  1  0  0  0  0
 22 24  1  0  0  0  0
 22 48  1  0  0  0  0
 23 24  2  0  0  0  0
 23 49  1  0  0  0  0
 24 50  1  0  0  0  0
 25 26  1  0  0  0  0
 25 27  2  0  0  0  0
 25 28  1  0  0  0  0
 27 29  1  0  0  0  0
 27 52  1  0  0  0  0
 28 31  2  0  0  0  0
 28 53  1  0  0  0  0
 29 30  2  0  0  0  0
 30 31  1  0  0  0  0
 31 54  1  0  0  0  0
 32 55  1  0  0  0  0
 32 56  1  0  0  0  0
 32 57  1  0  0  0  0
 33 58  1  0  0  0  0
 33 59  1  0  0  0  0
 33 60  1  0  0  0  0
M  END
> <PUBCHEM_COMPOUND_CID>
25057409

> <PUBCHEM_CONFORMER_RMSD>
1.4

> <PUBCHEM_CONFORMER_DIVERSEORDER>
4
61
71
41
50
25
60
11
15
18
68
39
72
65
56
57
32
70
49
37
58
59
26
33
31
10
24
20
69
8
22
29
1
43
7
54
36
45
17
66
21
42
16
5
53
6
48
67
62
30
38
51
46
13
3
47
12
64
40
55
27
2
63
14
35
52
23
28
44
34
9
19

> <PUBCHEM_MMFF94_PARTIAL_CHARGES>
46
1 -0.57
10 -0.14
11 0.27
12 0.41
13 -0.15
14 -0.15
15 0.12
16 -0.15
17 0.54
18 0.09
19 -0.14
2 -0.36
20 -0.15
21 0.44
22 -0.15
23 -0.15
24 -0.15
25 0.09
26 0.54
27 -0.15
28 -0.15
29 0.08
3 -0.36
30 0.08
31 -0.15
32 0.28
33 0.28
4 -0.57
40 0.36
41 0.15
42 0.15
43 0.15
44 0.37
45 0.15
48 0.15
49 0.15
5 -0.9
50 0.15
51 0.37
52 0.15
53 0.15
54 0.15
6 -0.55
7 -0.73
8 0.14
9 -0.14

> <PUBCHEM_EFFECTIVE_ROTOR_COUNT>
9.8

> <PUBCHEM_PHARMACOPHORE_FEATURES>
12
1 1 acceptor
1 2 acceptor
1 3 acceptor
1 4 acceptor
1 5 cation
1 5 donor
1 6 donor
1 7 donor
6 18 19 20 22 23 24 rings
6 25 27 28 29 30 31 rings
6 5 8 9 10 11 12 rings
6 9 10 13 14 15 16 rings

> <PUBCHEM_HEAVY_ATOM_COUNT>
33

> <PUBCHEM_ATOM_DEF_STEREO_COUNT>
0

> <PUBCHEM_ATOM_UDEF_STEREO_COUNT>
0

> <PUBCHEM_BOND_DEF_STEREO_COUNT>
0

> <PUBCHEM_BOND_UDEF_STEREO_COUNT>
0

> <PUBCHEM_ISOTOPIC_ATOM_COUNT>
0

> <PUBCHEM_COMPONENT_COUNT>
1

> <PUBCHEM_CACTVS_TAUTO_COUNT>
4

> <PUBCHEM_CONFORMER_ID>
017E588100000004

> <PUBCHEM_MMFF94_ENERGY>
110.6665

> <PUBCHEM_FEATURE_SELFOVERLAP>
60.924

> <PUBCHEM_SHAPE_FINGERPRINT>
100830 39 18267024036921870658
10556698 54 17982183213977958533
10675989 125 18050286960235042217
10864689 126 18412545401559705940
11136131 41 18335413522947538314
11204353 107 18196933490804042632
11513181 2 18343585139760587991
11621639 148 18121511408750442683
12107183 9 18335689526299411818
13347071 3 18195252350336241356
14223995 32 18412255152070051720
14347329 18 18340482357001895778
14705955 166 17749966581910379115
15198563 99 17982161525042895583
15297060 5 18343025484247263225
15320467 1 18267303312385170025
15400415 2 18411135797150516521
15419008 42 17988095460796578198
16067689 134 16396906069774044873
16067689 302 18340202974782352093
16728433 281 18339659918485008044
16992787 43 18411134711694194589
16993438 75 18336549437847157482
17899979 129 18197219148656249909
19053607 189 18267570347697701857
19246450 95 18339344333136353266
19309040 13 18058449803711345949
19611394 137 17539136460040847251
20609170 92 18270415962117441444
21033648 144 18270413783493803851
21049683 118 16807867430368659019
21133410 127 18042687187298461516
21133410 38 17986121721133542329
21792964 463 17534633908923170668
21859007 373 18199743829807852720
21987440 362 18409453557602819134
23522609 53 17414716463809058809
23559900 14 18052250696881776147
2838139 119 18410854386671979942
3388396 114 18268972337129986143
3418910 222 17039797734215606232
354706 109 18267562754042983249
376196 1 18335983056706191371
4144715 1 18187938313031206466
437795 96 17839170054544841752
4403749 210 18338228379814689104
44249763 50 17843958385350772154
50150288 127 16485028855721416753
5047190 92 18339085861782744953
5085150 59 18340474604496145138
5265222 85 18410291449872557577
5372103 7 17677587836504370135
53794403 172 18050003299435982001
5776283 40 18194136118131490646
6036956 94 18118124899407899293
7288768 16 18113335310724540019

> <PUBCHEM_SHAPE_MULTIPOLES>
640.7
18.36
7.37
0.94
15.9
4.26
-0.08
-25.44
3.17
-6.24
1.16
-0.41
0.38
2.29

> <PUBCHEM_SHAPE_SELFOVERLAP>
1387.145

> <PUBCHEM_SHAPE_VOLUME>
347.7

> <PUBCHEM_COORDINATE_TYPE>
2
5
10

$$$$
