24764502
  -OEChem-10052115173D

 38 41  0     0  0  0  0  0  0999 V2000
    2.7167    2.7009   -0.0411 O   0  0  0  0  0  0  0  0  0  0  0  0
   -0.5163    3.1458    0.0017 O   0  0  0  0  0  0  0  0  0  0  0  0
    0.5064   -1.3422   -0.0374 N   0  0  0  0  0  0  0  0  0  0  0  0
    1.7606   -0.7662   -0.0505 C   0  0  0  0  0  0  0  0  0  0  0  0
   -0.3902   -0.3284   -0.0178 C   0  0  0  0  0  0  0  0  0  0  0  0
    1.6359    0.6197   -0.0466 C   0  0  0  0  0  0  0  0  0  0  0  0
    0.2650    0.8809   -0.0218 C   0  0  0  0  0  0  0  0  0  0  0  0
    3.0394   -1.5244   -0.0673 C   0  0  0  0  0  0  0  0  0  0  0  0
    0.2135   -2.7560   -0.0480 C   0  0  0  0  0  0  0  0  0  0  0  0
    4.1575   -0.6192    0.4754 C   0  0  0  0  0  0  0  0  0  0  0  0
   -1.8115   -0.1594    0.0061 C   0  0  0  0  0  0  0  0  0  0  0  0
    4.1554    0.7729   -0.1768 C   0  0  0  0  0  0  0  0  0  0  0  0
    2.8035    1.4763   -0.0603 C   0  0  0  0  0  0  0  0  0  0  0  0
   -0.7132    1.9471   -0.0005 C   0  0  0  0  0  0  0  0  0  0  0  0
   -2.0398    1.2399    0.0172 C   0  0  0  0  0  0  0  0  0  0  0  0
   -0.5346   -3.1855    1.2164 C   0  0  0  0  0  0  0  0  0  0  0  0
   -0.5619   -3.1608   -1.3043 C   0  0  0  0  0  0  0  0  0  0  0  0
   -2.8543   -1.0570    0.0185 C   0  0  0  0  0  0  0  0  0  0  0  0
   -3.3095    1.7744    0.0407 C   0  0  0  0  0  0  0  0  0  0  0  0
   -4.1493   -0.5270    0.0426 C   0  0  0  0  0  0  0  0  0  0  0  0
   -4.3735    0.8680    0.0536 C   0  0  0  0  0  0  0  0  0  0  0  0
    3.2706   -1.8319   -1.0935 H   0  0  0  0  0  0  0  0  0  0  0  0
    2.9945   -2.4216    0.5577 H   0  0  0  0  0  0  0  0  0  0  0  0
    1.1552   -3.3124   -0.0714 H   0  0  0  0  0  0  0  0  0  0  0  0
    4.0267   -0.4997    1.5594 H   0  0  0  0  0  0  0  0  0  0  0  0
    5.1296   -1.1009    0.3212 H   0  0  0  0  0  0  0  0  0  0  0  0
    4.9137    1.3997    0.3049 H   0  0  0  0  0  0  0  0  0  0  0  0
    4.4014    0.6925   -1.2417 H   0  0  0  0  0  0  0  0  0  0  0  0
   -0.9023   -4.2135    1.1295 H   0  0  0  0  0  0  0  0  0  0  0  0
    0.1617   -3.1681    2.0646 H   0  0  0  0  0  0  0  0  0  0  0  0
   -1.3638   -2.5480    1.5147 H   0  0  0  0  0  0  0  0  0  0  0  0
    0.1019   -3.0849   -2.1750 H   0  0  0  0  0  0  0  0  0  0  0  0
   -0.8905   -4.2040   -1.2454 H   0  0  0  0  0  0  0  0  0  0  0  0
   -1.4249   -2.5444   -1.5449 H   0  0  0  0  0  0  0  0  0  0  0  0
   -2.7480   -2.1305    0.0109 H   0  0  0  0  0  0  0  0  0  0  0  0
   -3.4842    2.8434    0.0492 H   0  0  0  0  0  0  0  0  0  0  0  0
   -5.0033   -1.2001    0.0532 H   0  0  0  0  0  0  0  0  0  0  0  0
   -5.3946    1.2408    0.0724 H   0  0  0  0  0  0  0  0  0  0  0  0
  1 13  2  0  0  0  0
  2 14  2  0  0  0  0
  3  4  1  0  0  0  0
  3  5  1  0  0  0  0
  3  9  1  0  0  0  0
  4  6  2  0  0  0  0
  4  8  1  0  0  0  0
  5  7  2  0  0  0  0
  5 11  1  0  0  0  0
  6  7  1  0  0  0  0
  6 13  1  0  0  0  0
  7 14  1  0  0  0  0
  8 10  1  0  0  0  0
  8 22  1  0  0  0  0
  8 23  1  0  0  0  0
  9 16  1  0  0  0  0
  9 17  1  0  0  0  0
  9 24  1  0  0  0  0
 10 12  1  0  0  0  0
 10 25  1  0  0  0  0
 10 26  1  0  0  0  0
 11 15  1  0  0  0  0
 11 18  2  0  0  0  0
 12 13  1  0  0  0  0
 12 27  1  0  0  0  0
 12 28  1  0  0  0  0
 14 15  1  0  0  0  0
 15 19  2  0  0  0  0
 16 29  1  0  0  0  0
 16 30  1  0  0  0  0
 16 31  1  0  0  0  0
 17 32  1  0  0  0  0
 17 33  1  0  0  0  0
 17 34  1  0  0  0  0
 18 20  1  0  0  0  0
 18 35  1  0  0  0  0
 19 21  1  0  0  0  0
 19 36  1  0  0  0  0
 20 21  2  0  0  0  0
 20 37  1  0  0  0  0
 21 38  1  0  0  0  0
M  END
> <PUBCHEM_COMPOUND_CID>
24764502

> <PUBCHEM_CONFORMER_RMSD>
0.6

> <PUBCHEM_CONFORMER_DIVERSEORDER>
1

> <PUBCHEM_MMFF94_PARTIAL_CHARGES>
22
1 -0.57
11 0.05
12 0.06
13 0.6
14 0.57
15 0.09
18 -0.15
19 -0.15
2 -0.57
20 -0.15
21 -0.15
3 0.05
35 0.15
36 0.15
37 0.15
38 0.15
4 -0.33
5 -0.2
6 -0.09
7 -0.09
8 0.18
9 0.26

> <PUBCHEM_EFFECTIVE_ROTOR_COUNT>
1.6

> <PUBCHEM_PHARMACOPHORE_FEATURES>
8
1 1 acceptor
1 2 acceptor
1 3 cation
3 9 16 17 hydrophobe
5 3 4 5 6 7 rings
5 5 7 11 14 15 rings
6 11 15 18 19 20 21 rings
6 4 6 8 10 12 13 rings

> <PUBCHEM_HEAVY_ATOM_COUNT>
21

> <PUBCHEM_ATOM_DEF_STEREO_COUNT>
0

> <PUBCHEM_ATOM_UDEF_STEREO_COUNT>
0

> <PUBCHEM_BOND_DEF_STEREO_COUNT>
0

> <PUBCHEM_BOND_UDEF_STEREO_COUNT>
0

> <PUBCHEM_ISOTOPIC_ATOM_COUNT>
0

> <PUBCHEM_COMPONENT_COUNT>
1

> <PUBCHEM_CACTVS_TAUTO_COUNT>
2

> <PUBCHEM_CONFORMER_ID>
0179E05600000001

> <PUBCHEM_MMFF94_ENERGY>
68.3438

> <PUBCHEM_FEATURE_SELFOVERLAP>
41.025

> <PUBCHEM_SHAPE_FINGERPRINT>
10411042 1 17185595716143025607
10616163 171 18339643335166943159
10906281 52 18264226754818606801
10967382 1 18410856581162137812
1100329 8 18337103557848971330
11132069 177 18412822456418294681
11578080 2 16770415078322335898
11680986 33 17906451382866447585
12035759 4 18056448786832586583
12403259 226 18337387128616838836
12553582 1 17257375670419815870
12592029 89 18335986354834405843
12839892 36 18194384624638465802
13140716 1 18410296878420504321
13583140 156 16878765206030053472
138480 1 17689998938242134951
14178342 30 17907570333843350616
14223421 5 18050288063972448061
14787075 74 18342736372950061721
14790565 3 18411710888775939097
15042514 8 18409729603430091738
15196674 1 18410575071783471273
15230672 131 13147260816831355091
15309172 13 18411990165002914993
15536298 74 18342458123393732500
16945 1 18122628249552119461
18186145 218 18272380745370515060
193761 8 17618223248756248885
19591789 44 18411136961054245159
20028762 73 18130223891084987399
20510252 161 18343019956682238872
20645477 70 18267861688767587935
20739085 24 18191332445006048793
20905425 154 17836084476882259646
21197605 99 18194697075700485235
21267235 1 18410865343185545991
21421861 104 17828205389785020833
21524375 3 18410573972314314362
2334 1 18411138073466573109
23402539 116 18343293790721875006
23463225 33 18409166597436016348
23558518 356 17610901575378942304
23559900 14 18124590886524351690
238 59 17757792738230621085
2748010 2 18410299120303540909
335352 9 18122344579778633629
34934 24 18265329685060710024
350125 39 18409731716812438108
352729 6 18339651130237361678
43471831 8 18263360287478222834
5104073 3 18410293583969618289
6138700 20 18123193403478632134
69090 78 18411134766283765442
7364860 26 18053101722612438503
81228 2 17905026398490321659
9709674 26 18340211877089104462

> <PUBCHEM_SHAPE_MULTIPOLES>
415.45
6.91
3.54
0.78
0.07
1.25
-0.01
-2.18
0.29
-0.06
-0.07
0.03
0.52
-0.11

> <PUBCHEM_SHAPE_SELFOVERLAP>
934.081

> <PUBCHEM_SHAPE_VOLUME>
222.8

> <PUBCHEM_COORDINATE_TYPE>
2
5
10

$$$$
