49830532
  -OEChem-10062121543D

 45 47  0     0  0  0  0  0  0999 V2000
    4.4838    1.9250    0.0397 O   0  0  0  0  0  0  0  0  0  0  0  0
   -5.6448   -1.6430    0.0877 N   0  0  0  0  0  0  0  0  0  0  0  0
   -2.1976    0.4472   -0.1788 N   0  0  0  0  0  0  0  0  0  0  0  0
   -0.9227   -1.4285    0.4009 N   0  0  0  0  0  0  0  0  0  0  0  0
   -3.2428   -1.7010    0.2898 N   0  0  0  0  0  0  0  0  0  0  0  0
    5.3597   -0.1721    0.4999 N   0  0  0  0  0  0  0  0  0  0  0  0
   -4.5603    0.2651   -0.3167 C   0  0  0  0  0  0  0  0  0  0  0  0
   -3.3967    1.0259   -0.4207 C   0  0  0  0  0  0  0  0  0  0  0  0
   -4.4023   -1.0693    0.0376 C   0  0  0  0  0  0  0  0  0  0  0  0
   -3.3862    2.4701   -0.7898 C   0  0  0  0  0  0  0  0  0  0  0  0
   -5.9514    0.4871   -0.4816 C   0  0  0  0  0  0  0  0  0  0  0  0
   -2.1951   -0.8625    0.1568 C   0  0  0  0  0  0  0  0  0  0  0  0
   -6.5948   -0.7053   -0.2267 C   0  0  0  0  0  0  0  0  0  0  0  0
    0.3777   -0.8947    0.3654 C   0  0  0  0  0  0  0  0  0  0  0  0
    6.7486    0.2272    0.5213 C   0  0  0  0  0  0  0  0  0  0  0  0
    2.9583    0.1626    0.2936 C   0  0  0  0  0  0  0  0  0  0  0  0
   -3.1685    3.3775    0.4187 C   0  0  0  0  0  0  0  0  0  0  0  0
    7.4032    0.1249   -0.8512 C   0  0  0  0  0  0  0  0  0  0  0  0
    0.5880    0.4521    0.6614 C   0  0  0  0  0  0  0  0  0  0  0  0
    1.4575   -1.7129    0.0336 C   0  0  0  0  0  0  0  0  0  0  0  0
    1.8782    0.9807    0.6254 C   0  0  0  0  0  0  0  0  0  0  0  0
    2.7477   -1.1842   -0.0024 C   0  0  0  0  0  0  0  0  0  0  0  0
    4.3034    0.7138    0.2575 C   0  0  0  0  0  0  0  0  0  0  0  0
    7.3570   -1.2856   -1.4213 C   0  0  0  0  0  0  0  0  0  0  0  0
   -4.3220    2.7486   -1.2871 H   0  0  0  0  0  0  0  0  0  0  0  0
   -2.5855    2.6446   -1.5187 H   0  0  0  0  0  0  0  0  0  0  0  0
   -6.4389    1.4126   -0.7555 H   0  0  0  0  0  0  0  0  0  0  0  0
   -5.8322   -2.6084    0.3204 H   0  0  0  0  0  0  0  0  0  0  0  0
   -7.6429   -0.9691   -0.2407 H   0  0  0  0  0  0  0  0  0  0  0  0
   -0.9623   -2.4369    0.5143 H   0  0  0  0  0  0  0  0  0  0  0  0
    6.8190    1.2564    0.8892 H   0  0  0  0  0  0  0  0  0  0  0  0
    7.2616   -0.4223    1.2386 H   0  0  0  0  0  0  0  0  0  0  0  0
   -2.2123    3.1637    0.9080 H   0  0  0  0  0  0  0  0  0  0  0  0
   -3.1649    4.4270    0.1080 H   0  0  0  0  0  0  0  0  0  0  0  0
   -3.9636    3.2425    1.1598 H   0  0  0  0  0  0  0  0  0  0  0  0
    6.9072    0.8063   -1.5525 H   0  0  0  0  0  0  0  0  0  0  0  0
    8.4481    0.4464   -0.7732 H   0  0  0  0  0  0  0  0  0  0  0  0
   -0.2133    1.1143    0.9715 H   0  0  0  0  0  0  0  0  0  0  0  0
    1.3055   -2.7621   -0.2067 H   0  0  0  0  0  0  0  0  0  0  0  0
    5.1690   -1.1410    0.7313 H   0  0  0  0  0  0  0  0  0  0  0  0
    2.0232    2.0290    0.8737 H   0  0  0  0  0  0  0  0  0  0  0  0
    3.5547   -1.8487   -0.2968 H   0  0  0  0  0  0  0  0  0  0  0  0
    6.3283   -1.6125   -1.6023 H   0  0  0  0  0  0  0  0  0  0  0  0
    7.8318   -1.9994   -0.7406 H   0  0  0  0  0  0  0  0  0  0  0  0
    7.8907   -1.3222   -2.3764 H   0  0  0  0  0  0  0  0  0  0  0  0
  1 23  2  0  0  0  0
  2  9  1  0  0  0  0
  2 13  1  0  0  0  0
  2 28  1  0  0  0  0
  3  8  1  0  0  0  0
  3 12  2  0  0  0  0
  4 12  1  0  0  0  0
  4 14  1  0  0  0  0
  4 30  1  0  0  0  0
  5  9  2  0  0  0  0
  5 12  1  0  0  0  0
  6 15  1  0  0  0  0
  6 23  1  0  0  0  0
  6 40  1  0  0  0  0
  7  8  2  0  0  0  0
  7  9  1  0  0  0  0
  7 11  1  0  0  0  0
  8 10  1  0  0  0  0
 10 17  1  0  0  0  0
 10 25  1  0  0  0  0
 10 26  1  0  0  0  0
 11 13  2  0  0  0  0
 11 27  1  0  0  0  0
 13 29  1  0  0  0  0
 14 19  2  0  0  0  0
 14 20  1  0  0  0  0
 15 18  1  0  0  0  0
 15 31  1  0  0  0  0
 15 32  1  0  0  0  0
 16 21  2  0  0  0  0
 16 22  1  0  0  0  0
 16 23  1  0  0  0  0
 17 33  1  0  0  0  0
 17 34  1  0  0  0  0
 17 35  1  0  0  0  0
 18 24  1  0  0  0  0
 18 36  1  0  0  0  0
 18 37  1  0  0  0  0
 19 21  1  0  0  0  0
 19 38  1  0  0  0  0
 20 22  2  0  0  0  0
 20 39  1  0  0  0  0
 21 41  1  0  0  0  0
 22 42  1  0  0  0  0
 24 43  1  0  0  0  0
 24 44  1  0  0  0  0
 24 45  1  0  0  0  0
M  END
> <PUBCHEM_COMPOUND_CID>
49830532

> <PUBCHEM_CONFORMER_RMSD>
0.8

> <PUBCHEM_CONFORMER_DIVERSEORDER>
1
51
65
27
52
61
25
60
47
35
91
76
74
69
9
90
42
45
58
86
66
21
20
79
71
53
10
67
70
96
39
14
95
40
59
24
62
23
87
31
6
17
49
26
92
78
34
73
36
41
16
80
64
44
89
82
75
3
38
12
88
37
83
2
57
50
93
18
56
5
7
68
11
4
81
46
30
85
13
54
28
63
72
94
84
8
32
29
55
33
43
22
97
77
15
19
48

> <PUBCHEM_MMFF94_PARTIAL_CHARGES>
29
1 -0.57
10 0.14
11 -0.15
12 0.72
13 -0.3
14 0.1
15 0.3
16 0.09
19 -0.15
2 0.03
20 -0.15
21 -0.15
22 -0.15
23 0.54
27 0.15
28 0.27
29 0.15
3 -0.62
30 0.4
38 0.15
39 0.15
4 -0.6
40 0.37
41 0.15
42 0.15
5 -0.57
6 -0.73
8 0.17
9 0.11

> <PUBCHEM_EFFECTIVE_ROTOR_COUNT>
7

> <PUBCHEM_PHARMACOPHORE_FEATURES>
10
1 1 acceptor
1 17 hydrophobe
1 2 donor
1 24 hydrophobe
1 4 donor
1 6 donor
4 3 4 5 12 cation
5 2 7 9 11 13 rings
6 14 16 19 20 21 22 rings
6 3 5 7 8 9 12 rings

> <PUBCHEM_HEAVY_ATOM_COUNT>
24

> <PUBCHEM_ATOM_DEF_STEREO_COUNT>
0

> <PUBCHEM_ATOM_UDEF_STEREO_COUNT>
0

> <PUBCHEM_BOND_DEF_STEREO_COUNT>
0

> <PUBCHEM_BOND_UDEF_STEREO_COUNT>
0

> <PUBCHEM_ISOTOPIC_ATOM_COUNT>
0

> <PUBCHEM_COMPONENT_COUNT>
1

> <PUBCHEM_CACTVS_TAUTO_COUNT>
61

> <PUBCHEM_CONFORMER_ID>
02F85A8400000001

> <PUBCHEM_MMFF94_ENERGY>
53.4878

> <PUBCHEM_FEATURE_SELFOVERLAP>
50.862

> <PUBCHEM_SHAPE_FINGERPRINT>
10411042 1 18047191037020098435
10591671 39 18260552233712466470
10638233 991 16660651773815231596
10670039 82 18334296431559475780
10730089 173 18408601461702801065
11315181 36 16660367000171807027
11524674 6 16702020911226200967
11578080 2 16952228938665469015
11719270 70 18201717341342489742
12107183 9 17613423455283291027
12166972 35 18334577966766156468
12236239 1 17095516292621003787
12616971 3 14261345882146330496
13533116 47 16805587149814327114
13668630 136 17203895171415146174
14251764 18 17894343389718875826
14931854 50 18340476773566009701
14933364 13 18409167727381381500
15119646 104 15123519073408212046
15183329 4 18334860498588911514
15196674 1 18337386042084870105
15419008 47 17989198257510262096
15537594 2 12679465278680990757
15778101 99 18341334371192551793
15961568 22 18260830384295164005
18681886 176 18336822091309305424
19611394 137 17823711948098378811
20281389 69 17676481749075947444
21150785 3 18113623400340646460
21236236 1 18411136909430488593
21267235 1 18336267929222728051
21279426 13 18269839710296934558
21315759 40 17313098649385394954
21315764 268 18334566980097440508
221357 26 18343861125789737913
22224240 67 12035447255154785192
2297311 6 18410856577400095905
23402539 116 18335412513265791151
23559900 14 18411412946972925185
3004659 81 18408040728337607072
335352 9 18335695045495404029
350125 39 18409726257718802145
3545911 37 18409445894864223547
4073 2 17749392624235242162
4325135 7 18409727374594759647
445580 37 18333736792777614532
5104073 3 18338228250463666611
54446538 1 18333447655758803452
59755656 215 18410012126653025206
59755656 520 17240475944477513259

> <PUBCHEM_SHAPE_MULTIPOLES>
463.13
19.48
2.3
0.86
19.71
1.58
-0.14
-1.63
-4.93
-2.52
0.02
0.81
0.02
0.95

> <PUBCHEM_SHAPE_SELFOVERLAP>
993.213

> <PUBCHEM_SHAPE_VOLUME>
253.8

> <PUBCHEM_COORDINATE_TYPE>
2
5
10

$$$$
