24905217
  -OEChem-10052115143D

 39 42  0     0  0  0  0  0  0999 V2000
    2.6492    1.0374   -0.0526 N   0  0  0  0  0  0  0  0  0  0  0  0
    1.3660    1.4005    0.1309 N   0  0  0  0  0  0  0  0  0  0  0  0
    3.9896   -0.9641   -0.2968 N   0  0  0  0  0  0  0  0  0  0  0  0
    2.6256   -2.9830   -0.1796 N   0  0  0  0  0  0  0  0  0  0  0  0
    0.2606   -2.9253    0.1379 N   0  0  0  0  0  0  0  0  0  0  0  0
   -5.1955    0.2425   -1.4943 N   0  0  0  0  0  0  0  0  0  0  0  0
    3.6688    2.0541   -0.1564 C   0  0  0  0  0  0  0  0  0  0  0  0
    1.5733   -0.8733    0.0297 C   0  0  0  0  0  0  0  0  0  0  0  0
    2.8293   -0.3122   -0.1203 C   0  0  0  0  0  0  0  0  0  0  0  0
    0.7160    0.2325    0.1803 C   0  0  0  0  0  0  0  0  0  0  0  0
   -0.7075    0.2156    0.3705 C   0  0  0  0  0  0  0  0  0  0  0  0
    3.7740    2.8792    1.1288 C   0  0  0  0  0  0  0  0  0  0  0  0
    3.4393    2.9601   -1.3685 C   0  0  0  0  0  0  0  0  0  0  0  0
    1.4925   -2.2615   -0.0044 C   0  0  0  0  0  0  0  0  0  0  0  0
   -1.5586    0.2452   -0.7339 C   0  0  0  0  0  0  0  0  0  0  0  0
   -1.2371    0.1688    1.6581 C   0  0  0  0  0  0  0  0  0  0  0  0
   -2.9520    0.2290   -0.5554 C   0  0  0  0  0  0  0  0  0  0  0  0
   -3.4919    0.1817    0.7465 C   0  0  0  0  0  0  0  0  0  0  0  0
   -2.6201    0.1519    1.8472 C   0  0  0  0  0  0  0  0  0  0  0  0
    3.7871   -2.2993   -0.3129 C   0  0  0  0  0  0  0  0  0  0  0  0
   -3.8497    0.2575   -1.6245 C   0  0  0  0  0  0  0  0  0  0  0  0
   -4.8827    0.1658    0.9030 C   0  0  0  0  0  0  0  0  0  0  0  0
   -5.6762    0.1969   -0.2335 C   0  0  0  0  0  0  0  0  0  0  0  0
    4.6276    1.5419   -0.3014 H   0  0  0  0  0  0  0  0  0  0  0  0
    2.8593    3.4517    1.3189 H   0  0  0  0  0  0  0  0  0  0  0  0
    4.6069    3.5875    1.0662 H   0  0  0  0  0  0  0  0  0  0  0  0
    3.9466    2.2309    1.9950 H   0  0  0  0  0  0  0  0  0  0  0  0
    2.5117    3.5358   -1.2745 H   0  0  0  0  0  0  0  0  0  0  0  0
    3.3723    2.3698   -2.2892 H   0  0  0  0  0  0  0  0  0  0  0  0
    4.2654    3.6700   -1.4824 H   0  0  0  0  0  0  0  0  0  0  0  0
   -1.1442    0.2810   -1.7404 H   0  0  0  0  0  0  0  0  0  0  0  0
   -0.5859    0.1444    2.5290 H   0  0  0  0  0  0  0  0  0  0  0  0
   -3.0115    0.1150    2.8616 H   0  0  0  0  0  0  0  0  0  0  0  0
    4.6746   -2.9075   -0.4515 H   0  0  0  0  0  0  0  0  0  0  0  0
   -3.5003    0.2941   -2.6527 H   0  0  0  0  0  0  0  0  0  0  0  0
   -5.3432    0.1296    1.8856 H   0  0  0  0  0  0  0  0  0  0  0  0
   -0.6000   -2.4145    0.2695 H   0  0  0  0  0  0  0  0  0  0  0  0
    0.2466   -3.9360    0.1070 H   0  0  0  0  0  0  0  0  0  0  0  0
   -6.7583    0.1856   -0.1532 H   0  0  0  0  0  0  0  0  0  0  0  0
  1  2  1  0  0  0  0
  1  7  1  0  0  0  0
  1  9  1  0  0  0  0
  2 10  2  0  0  0  0
  3  9  2  0  0  0  0
  3 20  1  0  0  0  0
  4 14  1  0  0  0  0
  4 20  2  0  0  0  0
  5 14  1  0  0  0  0
  5 37  1  0  0  0  0
  5 38  1  0  0  0  0
  6 21  2  0  0  0  0
  6 23  1  0  0  0  0
  7 12  1  0  0  0  0
  7 13  1  0  0  0  0
  7 24  1  0  0  0  0
  8  9  1  0  0  0  0
  8 10  1  0  0  0  0
  8 14  2  0  0  0  0
 10 11  1  0  0  0  0
 11 15  2  0  0  0  0
 11 16  1  0  0  0  0
 12 25  1  0  0  0  0
 12 26  1  0  0  0  0
 12 27  1  0  0  0  0
 13 28  1  0  0  0  0
 13 29  1  0  0  0  0
 13 30  1  0  0  0  0
 15 17  1  0  0  0  0
 15 31  1  0  0  0  0
 16 19  2  0  0  0  0
 16 32  1  0  0  0  0
 17 18  2  0  0  0  0
 17 21  1  0  0  0  0
 18 19  1  0  0  0  0
 18 22  1  0  0  0  0
 19 33  1  0  0  0  0
 20 34  1  0  0  0  0
 21 35  1  0  0  0  0
 22 23  2  0  0  0  0
 22 36  1  0  0  0  0
 23 39  1  0  0  0  0
M  END
> <PUBCHEM_COMPOUND_CID>
24905217

> <PUBCHEM_CONFORMER_RMSD>
0.6

> <PUBCHEM_CONFORMER_DIVERSEORDER>
2
5
4
3
6
1

> <PUBCHEM_MMFF94_PARTIAL_CHARGES>
27
1 0.31
10 0.23
11 0.05
14 0.41
15 -0.15
16 -0.15
19 -0.15
2 -0.71
20 0.47
21 0.16
22 -0.15
23 0.16
3 -0.57
31 0.15
32 0.15
33 0.15
34 0.15
35 0.15
36 0.15
37 0.4
38 0.4
39 0.15
4 -0.62
5 -0.9
6 -0.62
7 0.26
9 0.11

> <PUBCHEM_EFFECTIVE_ROTOR_COUNT>
2

> <PUBCHEM_PHARMACOPHORE_FEATURES>
11
1 2 acceptor
1 5 cation
1 5 donor
1 6 acceptor
3 1 3 9 cation
3 3 4 20 cation
3 7 12 13 hydrophobe
5 1 2 8 9 10 rings
6 11 15 16 17 18 19 rings
6 3 4 8 9 14 20 rings
6 6 17 18 21 22 23 rings

> <PUBCHEM_HEAVY_ATOM_COUNT>
23

> <PUBCHEM_ATOM_DEF_STEREO_COUNT>
0

> <PUBCHEM_ATOM_UDEF_STEREO_COUNT>
0

> <PUBCHEM_BOND_DEF_STEREO_COUNT>
0

> <PUBCHEM_BOND_UDEF_STEREO_COUNT>
0

> <PUBCHEM_ISOTOPIC_ATOM_COUNT>
0

> <PUBCHEM_COMPONENT_COUNT>
1

> <PUBCHEM_CACTVS_TAUTO_COUNT>
5

> <PUBCHEM_CONFORMER_ID>
017C060100000002

> <PUBCHEM_MMFF94_ENERGY>
60.3023

> <PUBCHEM_FEATURE_SELFOVERLAP>
56.127

> <PUBCHEM_SHAPE_FINGERPRINT>
10366900 7 17896047558957584838
11582403 64 17680397203923268432
11725454 13 17677874889820768273
12236239 1 17704072858944359835
12403259 415 17822017505963737401
12616971 3 17988648463130506737
12730499 353 18337116764456538593
13009979 54 17344917299969523578
13140716 1 18338799035165617442
13533116 47 18342742910122336569
13631057 29 17841420746694677943
13760787 5 18202845444440187853
13911987 19 18120386598593986205
13955234 65 18411697682056796922
15375358 24 17749105621376839593
15842332 3 17703244905271739921
15961568 22 16733273459593188044
16752209 62 16486970662138873485
17138139 8 17557113380701977983
17818456 19 17271176310658653617
17844677 252 18337113372039361157
1813 80 17914349974243524318
18222031 100 18199467658820833766
200 152 18272368616741567507
20369508 70 17968652714466273866
204376 136 18265055906185592688
20511986 3 17631997690021829369
20554085 129 17702087262016448096
20600515 1 16009029544381757637
20612939 158 18412545400963016069
20645477 70 18335422352518758714
21033648 29 17748823004028525277
21065201 7 16587750828119542459
2255824 54 18342745083254819678
23419403 2 14927831240459567586
23557571 272 17167872954327984973
23559900 14 16660368052069685306
312423 11 18058743415711727417
341906 21 15719389529893121253
4340502 62 18341609377462594355
469060 322 17758966204874379587
474 4 18271242832709431048
495365 180 18408320008042691176
5281201 14 18260547779863237213
6034566 193 17828494900345543892
633830 44 18129404664326131329
70251023 43 18269275660003723179
7471813 234 18059290951138338864
7615 1 17917718941794275497
77492 1 17704077261301558691
8272917 22 18412269415023003501

> <PUBCHEM_SHAPE_MULTIPOLES>
443.44
10.56
2.88
1.35
9.54
0.65
0.11
-2.95
-1.86
-6.12
-0.25
1.26
-0.53
0.21

> <PUBCHEM_SHAPE_SELFOVERLAP>
993.388

> <PUBCHEM_SHAPE_VOLUME>
232.8

> <PUBCHEM_COORDINATE_TYPE>
2
5
10

$$$$
