49830822
  -OEChem-10052115183D

 37 40  0     0  0  0  0  0  0999 V2000
   -3.3826    1.9657   -0.3497 O   0  0  0  0  0  0  0  0  0  0  0  0
    7.6322    0.0495   -0.0591 O   0  0  0  0  0  0  0  0  0  0  0  0
   -1.0230    1.8527   -0.3524 N   0  0  0  0  0  0  0  0  0  0  0  0
   -5.3966   -1.2241   -0.7028 N   0  0  0  0  0  0  0  0  0  0  0  0
   -0.7226   -0.3776    0.1209 C   0  0  0  0  0  0  0  0  0  0  0  0
   -0.0832    0.8366   -0.1460 C   0  0  0  0  0  0  0  0  0  0  0  0
   -2.1526   -0.0914    0.0760 C   0  0  0  0  0  0  0  0  0  0  0  0
    2.0406   -0.1998    0.0508 C   0  0  0  0  0  0  0  0  0  0  0  0
    1.2921    0.9546   -0.1871 C   0  0  0  0  0  0  0  0  0  0  0  0
    0.0115   -1.5245    0.3575 C   0  0  0  0  0  0  0  0  0  0  0  0
   -2.3292    1.3671   -0.2337 C   0  0  0  0  0  0  0  0  0  0  0  0
    1.4066   -1.4274    0.3205 C   0  0  0  0  0  0  0  0  0  0  0  0
   -3.1744   -0.9279    0.2664 C   0  0  0  0  0  0  0  0  0  0  0  0
    3.4865   -0.1350    0.0207 C   0  0  0  0  0  0  0  0  0  0  0  0
   -4.6045   -0.5735    0.2069 C   0  0  0  0  0  0  0  0  0  0  0  0
    4.2271   -1.2519   -0.3663 C   0  0  0  0  0  0  0  0  0  0  0  0
    4.1391    1.0442    0.3804 C   0  0  0  0  0  0  0  0  0  0  0  0
   -5.3972    0.3185    0.8949 C   0  0  0  0  0  0  0  0  0  0  0  0
    5.6203   -1.1897   -0.3933 C   0  0  0  0  0  0  0  0  0  0  0  0
    5.5322    1.1064    0.3534 C   0  0  0  0  0  0  0  0  0  0  0  0
   -6.6830   -0.7615   -0.6052 C   0  0  0  0  0  0  0  0  0  0  0  0
   -6.7122    0.1996    0.3809 C   0  0  0  0  0  0  0  0  0  0  0  0
    6.2728   -0.0105   -0.0335 C   0  0  0  0  0  0  0  0  0  0  0  0
    1.7345    1.9153   -0.4267 H   0  0  0  0  0  0  0  0  0  0  0  0
   -0.7732    2.8123   -0.5604 H   0  0  0  0  0  0  0  0  0  0  0  0
   -0.4664   -2.4737    0.5733 H   0  0  0  0  0  0  0  0  0  0  0  0
    1.9685   -2.3318    0.5413 H   0  0  0  0  0  0  0  0  0  0  0  0
   -2.9712   -1.9824    0.4416 H   0  0  0  0  0  0  0  0  0  0  0  0
    3.7632   -2.1810   -0.6857 H   0  0  0  0  0  0  0  0  0  0  0  0
    3.6062    1.9289    0.7180 H   0  0  0  0  0  0  0  0  0  0  0  0
   -5.0861   -1.9371   -1.3491 H   0  0  0  0  0  0  0  0  0  0  0  0
   -5.0715    0.9795    1.6865 H   0  0  0  0  0  0  0  0  0  0  0  0
    6.1922   -2.0606   -0.7020 H   0  0  0  0  0  0  0  0  0  0  0  0
    6.0294    2.0285    0.6426 H   0  0  0  0  0  0  0  0  0  0  0  0
   -7.4603   -1.1563   -1.2442 H   0  0  0  0  0  0  0  0  0  0  0  0
   -7.5860    0.7523    0.6961 H   0  0  0  0  0  0  0  0  0  0  0  0
    7.9137    0.9380    0.2190 H   0  0  0  0  0  0  0  0  0  0  0  0
  1 11  2  0  0  0  0
  2 23  1  0  0  0  0
  2 37  1  0  0  0  0
  3  6  1  0  0  0  0
  3 11  1  0  0  0  0
  3 25  1  0  0  0  0
  4 15  1  0  0  0  0
  4 21  1  0  0  0  0
  4 31  1  0  0  0  0
  5  6  2  0  0  0  0
  5  7  1  0  0  0  0
  5 10  1  0  0  0  0
  6  9  1  0  0  0  0
  7 11  1  0  0  0  0
  7 13  2  3  0  0  0
  8  9  2  0  0  0  0
  8 12  1  0  0  0  0
  8 14  1  0  0  0  0
  9 24  1  0  0  0  0
 10 12  2  0  0  0  0
 10 26  1  0  0  0  0
 12 27  1  0  0  0  0
 13 15  1  0  0  0  0
 13 28  1  0  0  0  0
 14 16  2  0  0  0  0
 14 17  1  0  0  0  0
 15 18  2  0  0  0  0
 16 19  1  0  0  0  0
 16 29  1  0  0  0  0
 17 20  2  0  0  0  0
 17 30  1  0  0  0  0
 18 22  1  0  0  0  0
 18 32  1  0  0  0  0
 19 23  2  0  0  0  0
 19 33  1  0  0  0  0
 20 23  1  0  0  0  0
 20 34  1  0  0  0  0
 21 22  2  0  0  0  0
 21 35  1  0  0  0  0
 22 36  1  0  0  0  0
M  END
> <PUBCHEM_COMPOUND_CID>
49830822

> <PUBCHEM_CONFORMER_RMSD>
0.6

> <PUBCHEM_CONFORMER_DIVERSEORDER>
2
3
1

> <PUBCHEM_MMFF94_PARTIAL_CHARGES>
35
1 -0.57
10 -0.15
11 0.62
12 -0.15
13 -0.11
15 -0.2
16 -0.15
17 -0.15
18 -0.15
19 -0.15
2 -0.53
20 -0.15
21 -0.3
22 -0.15
23 0.08
24 0.15
25 0.37
26 0.15
27 0.15
28 0.15
29 0.15
3 -0.55
30 0.15
31 0.27
32 0.15
33 0.15
34 0.15
35 0.15
36 0.15
37 0.45
4 0.03
5 0.03
6 0.12
7 -0.01
9 -0.15

> <PUBCHEM_EFFECTIVE_ROTOR_COUNT>
2.2

> <PUBCHEM_PHARMACOPHORE_FEATURES>
9
1 1 acceptor
1 2 donor
1 3 donor
1 4 cation
1 4 donor
5 3 5 6 7 11 rings
5 4 15 18 21 22 rings
6 14 16 17 19 20 23 rings
6 5 6 8 9 10 12 rings

> <PUBCHEM_HEAVY_ATOM_COUNT>
23

> <PUBCHEM_ATOM_DEF_STEREO_COUNT>
0

> <PUBCHEM_ATOM_UDEF_STEREO_COUNT>
0

> <PUBCHEM_BOND_DEF_STEREO_COUNT>
0

> <PUBCHEM_BOND_UDEF_STEREO_COUNT>
1

> <PUBCHEM_ISOTOPIC_ATOM_COUNT>
0

> <PUBCHEM_COMPONENT_COUNT>
1

> <PUBCHEM_CACTVS_TAUTO_COUNT>
84

> <PUBCHEM_CONFORMER_ID>
02F85BA600000002

> <PUBCHEM_MMFF94_ENERGY>
77.7675

> <PUBCHEM_FEATURE_SELFOVERLAP>
45.761

> <PUBCHEM_SHAPE_FINGERPRINT>
10 15 18336819893135480176
10050765 1 18120935001571569339
10299344 5 17989208152681777239
10906281 52 18262257572173706179
10968037 39 18334857225676340191
11315181 36 17022910059682386593
11524674 6 16056879152345796527
11578080 2 16734935736770080031
11963148 33 18260542355273115659
12166972 35 18409451392892425968
12236239 1 18060420222842278875
12403259 415 18412252935555781272
12516196 113 18273213109979894969
12838862 33 18262782039415269135
12916748 109 18335421249318656096
13288520 33 18413670219376746557
13533116 47 18272089362527134666
13862211 1 18335136488106719939
13914758 101 15068611652580543942
14123256 10 18186802478215193099
1420 363 18260832596107972530
14251764 18 18408603656879339538
14849402 71 17988083421017323609
14856354 85 16343703270532122677
14933364 13 18343585135528280328
15196674 1 18336827490119846608
15716309 27 18131349700269066719
16087824 20 18263078809589283757
18006028 8 18343582949738229065
18681886 176 18410850001509649977
19141452 34 18201719595677671575
19489759 90 16515401859273903373
200 152 18344144796137918721
21150785 3 16877666772966362358
21236236 1 18410856521650202913
21267235 1 18408328782418101557
221357 26 18342738512097216744
22224240 67 17489302001611854846
23035841 295 18411699889585603603
23402539 116 18410853295770957215
23516275 137 17202228277302190703
23522609 53 18126033578676846464
23536379 177 17704075083616197347
23559900 14 18188770677275724761
283562 15 18335984155900820857
3009799 131 17676483960414204333
335352 9 18335983142847363903
34797466 226 17846223276304098284
350125 39 18409450297185005661
3545911 37 18412826885241603226
397830 11 14907315611610380911
4073 2 18261677094580602330
4325135 7 18413388739218813046
4340502 62 15791728607513623034
4463277 17 18410856555735238401
5104073 3 18262518061623730768
54039377 194 18058441184366773815
59682541 35 18335702796877411608
59755656 215 18333450924065489226
59755656 520 17385999606779855434
7495541 125 17203323459316828314
9996256 80 18343019973634994530

> <PUBCHEM_SHAPE_MULTIPOLES>
451.63
18.37
1.59
0.73
1.71
0.24
0.02
-1.72
-0.31
-0.07
-0.11
-0.35
-0.03
0.13

> <PUBCHEM_SHAPE_SELFOVERLAP>
1021.407

> <PUBCHEM_SHAPE_VOLUME>
238.8

> <PUBCHEM_COORDINATE_TYPE>
2
5
10

$$$$
