25218459
  -OEChem-10062122023D

 45 47  0     1  0  0  0  0  0999 V2000
    1.5044   -3.5532   -0.1495 Cl  0  0  0  0  0  0  0  0  0  0  0  0
   -1.6087   -0.4236    1.0993 O   0  0  0  0  0  0  0  0  0  0  0  0
    4.0100    0.6275    0.7355 N   0  0  0  0  0  0  0  0  0  0  0  0
   -1.6455    1.2133   -0.5814 N   0  0  0  0  0  0  0  0  0  0  0  0
    2.8686   -1.3856    0.2852 N   0  0  0  0  0  0  0  0  0  0  0  0
    5.1862   -2.3343   -0.9778 N   0  0  0  0  0  0  0  0  0  0  0  0
    2.8682    1.2272    1.4130 C   0  0  2  0  0  0  0  0  0  0  0  0
    1.8828    1.7622    0.4301 C   0  0  0  0  0  0  0  0  0  0  0  0
    0.5897    1.2410    0.3846 C   0  0  0  0  0  0  0  0  0  0  0  0
    3.3865    2.2798    2.4046 C   0  0  0  0  0  0  0  0  0  0  0  0
   -0.3321    1.7417   -0.5346 C   0  0  0  0  0  0  0  0  0  0  0  0
    2.2539    2.7840   -0.4438 C   0  0  0  0  0  0  0  0  0  0  0  0
    0.0391    2.7636   -1.4085 C   0  0  0  0  0  0  0  0  0  0  0  0
    1.3321    3.2848   -1.3632 C   0  0  0  0  0  0  0  0  0  0  0  0
    3.9882   -0.6405    0.1954 C   0  0  0  0  0  0  0  0  0  0  0  0
   -3.6015   -0.1144   -0.0603 C   0  0  0  0  0  0  0  0  0  0  0  0
   -2.2056    0.1959    0.2039 C   0  0  0  0  0  0  0  0  0  0  0  0
   -4.4016   -0.6480    0.9500 C   0  0  0  0  0  0  0  0  0  0  0  0
   -5.7406   -0.9448    0.6957 C   0  0  0  0  0  0  0  0  0  0  0  0
   -4.1404    0.1221   -1.3250 C   0  0  0  0  0  0  0  0  0  0  0  0
    5.1264   -1.1065   -0.4250 C   0  0  0  0  0  0  0  0  0  0  0  0
   -6.2793   -0.7083   -0.5690 C   0  0  0  0  0  0  0  0  0  0  0  0
   -5.4793   -0.1749   -1.5794 C   0  0  0  0  0  0  0  0  0  0  0  0
   -6.5964   -1.5162    1.7754 C   0  0  0  0  0  0  0  0  0  0  0  0
    2.9284   -2.6135   -0.2673 C   0  0  0  0  0  0  0  0  0  0  0  0
    4.0667   -3.0795   -0.8877 C   0  0  0  0  0  0  0  0  0  0  0  0
    2.3899    0.4610    2.0384 H   0  0  0  0  0  0  0  0  0  0  0  0
    0.3592    0.4512    1.0849 H   0  0  0  0  0  0  0  0  0  0  0  0
    3.9543    3.0723    1.9045 H   0  0  0  0  0  0  0  0  0  0  0  0
    2.5566    2.7501    2.9434 H   0  0  0  0  0  0  0  0  0  0  0  0
    4.0534    1.8185    3.1418 H   0  0  0  0  0  0  0  0  0  0  0  0
    4.7471    1.2523    0.4241 H   0  0  0  0  0  0  0  0  0  0  0  0
    3.2572    3.2009   -0.4274 H   0  0  0  0  0  0  0  0  0  0  0  0
   -0.6689    3.1629   -2.1302 H   0  0  0  0  0  0  0  0  0  0  0  0
    1.6215    4.0797   -2.0444 H   0  0  0  0  0  0  0  0  0  0  0  0
   -2.2418    1.6863   -1.2547 H   0  0  0  0  0  0  0  0  0  0  0  0
   -3.9916   -0.8330    1.9403 H   0  0  0  0  0  0  0  0  0  0  0  0
   -3.5493    0.4975   -2.1549 H   0  0  0  0  0  0  0  0  0  0  0  0
    6.0338   -0.5183   -0.5041 H   0  0  0  0  0  0  0  0  0  0  0  0
   -7.3199   -0.9392   -0.7811 H   0  0  0  0  0  0  0  0  0  0  0  0
   -5.8969   -0.0001   -2.5668 H   0  0  0  0  0  0  0  0  0  0  0  0
   -6.4959   -2.6060    1.7972 H   0  0  0  0  0  0  0  0  0  0  0  0
   -6.3125   -1.1164    2.7548 H   0  0  0  0  0  0  0  0  0  0  0  0
   -7.6514   -1.2657    1.6211 H   0  0  0  0  0  0  0  0  0  0  0  0
    4.1246   -4.0649   -1.3350 H   0  0  0  0  0  0  0  0  0  0  0  0
  1 25  1  0  0  0  0
  2 17  2  0  0  0  0
  3  7  1  0  0  0  0
  3 15  1  0  0  0  0
  3 32  1  0  0  0  0
  4 11  1  0  0  0  0
  4 17  1  0  0  0  0
  4 36  1  0  0  0  0
  5 15  1  0  0  0  0
  5 25  2  0  0  0  0
  6 21  1  0  0  0  0
  6 26  2  0  0  0  0
  7  8  1  0  0  0  0
  7 10  1  0  0  0  0
  7 27  1  0  0  0  0
  8  9  2  0  0  0  0
  8 12  1  0  0  0  0
  9 11  1  0  0  0  0
  9 28  1  0  0  0  0
 10 29  1  0  0  0  0
 10 30  1  0  0  0  0
 10 31  1  0  0  0  0
 11 13  2  0  0  0  0
 12 14  2  0  0  0  0
 12 33  1  0  0  0  0
 13 14  1  0  0  0  0
 13 34  1  0  0  0  0
 14 35  1  0  0  0  0
 15 21  2  0  0  0  0
 16 17  1  0  0  0  0
 16 18  1  0  0  0  0
 16 20  2  0  0  0  0
 18 19  2  0  0  0  0
 18 37  1  0  0  0  0
 19 22  1  0  0  0  0
 19 24  1  0  0  0  0
 20 23  1  0  0  0  0
 20 38  1  0  0  0  0
 21 39  1  0  0  0  0
 22 23  2  0  0  0  0
 22 40  1  0  0  0  0
 23 41  1  0  0  0  0
 24 42  1  0  0  0  0
 24 43  1  0  0  0  0
 24 44  1  0  0  0  0
 25 26  1  0  0  0  0
 26 45  1  0  0  0  0
M  END
> <PUBCHEM_COMPOUND_CID>
25218459

> <PUBCHEM_CONFORMER_RMSD>
1.2

> <PUBCHEM_CONFORMER_DIVERSEORDER>
1
90
30
24
46
47
37
40
79
14
63
44
76
74
67
17
51
91
88
43
82
53
72
42
84
59
68
89
78
13
92
15
73
4
85
33
35
10
86
54
27
36
25
38
3
19
77
52
58
32
11
12
62
29
57
56
26
66
2
70
61
8
22
16
87
48
81
49
34
31
50
45
65
80
55
39
18
28
23
71
41
83
69
7
5
60
21
75
64
6
9
20

> <PUBCHEM_MMFF94_PARTIAL_CHARGES>
37
1 -0.18
11 0.12
12 -0.15
13 -0.15
14 -0.15
15 0.41
16 0.09
17 0.54
18 -0.15
19 -0.14
2 -0.57
20 -0.15
21 0.16
22 -0.15
23 -0.15
24 0.14
25 0.49
26 0.16
28 0.15
3 -0.87
32 0.4
33 0.15
34 0.15
35 0.15
36 0.37
37 0.15
38 0.15
39 0.15
4 -0.55
40 0.15
41 0.15
45 0.15
5 -0.62
6 -0.62
7 0.51
8 -0.14
9 -0.15

> <PUBCHEM_EFFECTIVE_ROTOR_COUNT>
6

> <PUBCHEM_PHARMACOPHORE_FEATURES>
9
1 2 acceptor
1 3 cation
1 3 donor
1 4 donor
1 5 acceptor
1 6 acceptor
6 16 18 19 20 22 23 rings
6 5 6 15 21 25 26 rings
6 8 9 11 12 13 14 rings

> <PUBCHEM_HEAVY_ATOM_COUNT>
26

> <PUBCHEM_ATOM_DEF_STEREO_COUNT>
1

> <PUBCHEM_ATOM_UDEF_STEREO_COUNT>
0

> <PUBCHEM_BOND_DEF_STEREO_COUNT>
0

> <PUBCHEM_BOND_UDEF_STEREO_COUNT>
0

> <PUBCHEM_ISOTOPIC_ATOM_COUNT>
0

> <PUBCHEM_COMPONENT_COUNT>
1

> <PUBCHEM_CACTVS_TAUTO_COUNT>
4

> <PUBCHEM_CONFORMER_ID>
0180CD9B00000001

> <PUBCHEM_MMFF94_ENERGY>
85.8923

> <PUBCHEM_FEATURE_SELFOVERLAP>
45.675

> <PUBCHEM_SHAPE_FINGERPRINT>
10316853 100 18334584584994398147
10816530 23 17694490847121273816
10904742 38 13048237167191945598
10981352 41 17825122647624840139
114674 6 18410284809757769882
12107183 9 17629493999187643713
12596602 18 16773791536907915707
12778500 126 17489035885437831451
13150687 139 18044112344353753596
13402501 40 18335422352772408034
13533116 47 18131350838488219329
13583140 156 17560219384638181593
1361 2 18410851088094762167
13631057 29 18194686956857333654
13955234 65 18269275836272021072
14251740 57 18338239361829137547
14840074 17 18130785642520428559
14863182 85 18338514261427488044
15142526 21 16624868334887221016
15664445 248 17968092019566108236
17492 54 17896906377240816300
17818456 19 17916313727759696881
193927 3 18333731321211058961
1979834 28 18338510962449441488
20645477 70 18115025319909371537
20775530 9 18268988696412288110
21033650 10 16444189690598342037
21285901 2 18113606872489288428
21682296 61 18409452484172431983
22182313 1 18191000383566668981
22224240 67 18058152007933075552
23559900 14 18334013925790223949
239999 70 17895187865556119352
338550 245 18195242445608621047
3421961 26 18411700984765321252
345986 75 17703222906254298523
3737641 26 18127136268996646166
46194498 28 17894914069848916140
463206 1 18200023075016372903
5207 123 18335980891788959877
5309563 4 18337953389662933030
5326457 24 18057308682377317511
6823239 73 18040434416615470449
7808743 9 12102692351512474240
86090 222 18335423473574399450

> <PUBCHEM_SHAPE_MULTIPOLES>
511.14
14.42
3.97
1.61
19.7
0.64
0.48
9.66
1.32
-6.32
-1.1
0.47
-0.7
2.6

> <PUBCHEM_SHAPE_SELFOVERLAP>
1092.784

> <PUBCHEM_SHAPE_VOLUME>
283

> <PUBCHEM_COORDINATE_TYPE>
2
5
10

$$$$
