10409707
  -OEChem-10062122023D

 43 46  0     0  0  0  0  0  0999 V2000
   -1.9071    2.6445   -0.3469 S   0  0  0  0  0  0  0  0  0  0  0  0
    4.2422   -1.8576   -2.3851 F   0  0  0  0  0  0  0  0  0  0  0  0
    2.3928   -2.4067   -1.3941 F   0  0  0  0  0  0  0  0  0  0  0  0
    2.7253   -0.3465   -2.0054 F   0  0  0  0  0  0  0  0  0  0  0  0
    1.4498    0.8582    0.3504 O   0  0  0  0  0  0  0  0  0  0  0  0
    0.1807    4.7134   -0.9545 O   0  0  0  0  0  0  0  0  0  0  0  0
   -3.4249    0.5603    0.2637 N   0  0  0  0  0  0  0  0  0  0  0  0
   -5.6224    0.5956    0.5952 N   0  0  0  0  0  0  0  0  0  0  0  0
    2.0052    3.4559   -0.4642 N   0  0  0  0  0  0  0  0  0  0  0  0
   -3.8429   -0.7335    0.0844 C   0  0  0  0  0  0  0  0  0  0  0  0
   -2.1334    1.0338    0.1607 C   0  0  0  0  0  0  0  0  0  0  0  0
    0.1661    1.2232    0.1848 C   0  0  0  0  0  0  0  0  0  0  0  0
   -5.2179   -0.6853    0.2969 C   0  0  0  0  0  0  0  0  0  0  0  0
   -0.9599    0.3807    0.4132 C   0  0  0  0  0  0  0  0  0  0  0  0
    3.1902   -0.6702    0.9406 C   0  0  0  0  0  0  0  0  0  0  0  0
    1.7092   -0.4819    0.7908 C   0  0  0  0  0  0  0  0  0  0  0  0
   -0.2062    2.4823   -0.2324 C   0  0  0  0  0  0  0  0  0  0  0  0
   -4.5234    1.3157    0.5667 C   0  0  0  0  0  0  0  0  0  0  0  0
    3.9609   -1.1198   -0.1268 C   0  0  0  0  0  0  0  0  0  0  0  0
   -3.1573   -1.9058   -0.2355 C   0  0  0  0  0  0  0  0  0  0  0  0
   -5.9694   -1.8676    0.1878 C   0  0  0  0  0  0  0  0  0  0  0  0
    3.7809   -0.3866    2.1681 C   0  0  0  0  0  0  0  0  0  0  0  0
   -3.9209   -3.0730   -0.3402 C   0  0  0  0  0  0  0  0  0  0  0  0
   -5.3021   -3.0564   -0.1326 C   0  0  0  0  0  0  0  0  0  0  0  0
    5.3361   -1.2876    0.0347 C   0  0  0  0  0  0  0  0  0  0  0  0
    3.3436   -1.4289   -1.4512 C   0  0  0  0  0  0  0  0  0  0  0  0
    5.1562   -0.5545    2.3296 C   0  0  0  0  0  0  0  0  0  0  0  0
    0.6147    3.6033   -0.5619 C   0  0  0  0  0  0  0  0  0  0  0  0
    5.9339   -1.0050    1.2629 C   0  0  0  0  0  0  0  0  0  0  0  0
   -0.9023   -0.6323    0.7852 H   0  0  0  0  0  0  0  0  0  0  0  0
    1.2706   -1.2085    0.1012 H   0  0  0  0  0  0  0  0  0  0  0  0
    1.2347   -0.6427    1.7687 H   0  0  0  0  0  0  0  0  0  0  0  0
   -4.4920    2.3764    0.7795 H   0  0  0  0  0  0  0  0  0  0  0  0
   -2.0944   -1.9434   -0.4344 H   0  0  0  0  0  0  0  0  0  0  0  0
   -7.0431   -1.8652    0.3467 H   0  0  0  0  0  0  0  0  0  0  0  0
    3.1875   -0.0319    3.0065 H   0  0  0  0  0  0  0  0  0  0  0  0
   -3.4307   -4.0093   -0.5955 H   0  0  0  0  0  0  0  0  0  0  0  0
    5.9608   -1.6373   -0.7826 H   0  0  0  0  0  0  0  0  0  0  0  0
   -5.8690   -3.9795   -0.2228 H   0  0  0  0  0  0  0  0  0  0  0  0
    5.6218   -0.3336    3.2857 H   0  0  0  0  0  0  0  0  0  0  0  0
    7.0048   -1.1353    1.3889 H   0  0  0  0  0  0  0  0  0  0  0  0
    2.4480    2.5936   -0.1645 H   0  0  0  0  0  0  0  0  0  0  0  0
    2.6231    4.2267   -0.6965 H   0  0  0  0  0  0  0  0  0  0  0  0
  1 11  1  0  0  0  0
  1 17  1  0  0  0  0
  2 26  1  0  0  0  0
  3 26  1  0  0  0  0
  4 26  1  0  0  0  0
  5 12  1  0  0  0  0
  5 16  1  0  0  0  0
  6 28  2  0  0  0  0
  7 10  1  0  0  0  0
  7 11  1  0  0  0  0
  7 18  1  0  0  0  0
  8 13  1  0  0  0  0
  8 18  2  0  0  0  0
  9 28  1  0  0  0  0
  9 42  1  0  0  0  0
  9 43  1  0  0  0  0
 10 13  1  0  0  0  0
 10 20  2  0  0  0  0
 11 14  2  0  0  0  0
 12 14  1  0  0  0  0
 12 17  2  0  0  0  0
 13 21  2  0  0  0  0
 14 30  1  0  0  0  0
 15 16  1  0  0  0  0
 15 19  1  0  0  0  0
 15 22  2  0  0  0  0
 16 31  1  0  0  0  0
 16 32  1  0  0  0  0
 17 28  1  0  0  0  0
 18 33  1  0  0  0  0
 19 25  2  0  0  0  0
 19 26  1  0  0  0  0
 20 23  1  0  0  0  0
 20 34  1  0  0  0  0
 21 24  1  0  0  0  0
 21 35  1  0  0  0  0
 22 27  1  0  0  0  0
 22 36  1  0  0  0  0
 23 24  2  0  0  0  0
 23 37  1  0  0  0  0
 24 39  1  0  0  0  0
 25 29  1  0  0  0  0
 25 38  1  0  0  0  0
 27 29  2  0  0  0  0
 27 40  1  0  0  0  0
 29 41  1  0  0  0  0
M  END
> <PUBCHEM_COMPOUND_CID>
10409707

> <PUBCHEM_CONFORMER_RMSD>
0.8

> <PUBCHEM_CONFORMER_DIVERSEORDER>
1
373
391
367
168
179
23
261
155
389
334
47
199
348
236
372
176
280
146
242
196
316
104
392
309
349
166
41
230
390
377
378
123
366
152
299
331
204
397
333
91
296
238
268
251
357
314
306
294
350
224
332
272
211
45
297
142
381
232
379
145
210
346
223
82
18
352
253
178
356
208
216
194
63
139
384
380
12
289
134
49
43
137
222
249
375
198
276
322
213
51
248
158
237
369
50
374
205
295
36
269
118
239
303
143
284
330
56
225
131
328
182
234
42
160
141
308
347
100
35
371
285
183
192
89
81
394
129
255
197
54
85
44
361
33
27
370
252
304
174
187
395
274
72
153
157
48
245
98
385
344
130
364
336
354
169
278
97
135
75
73
227
287
337
188
315
318
260
288
200
59
270
382
400
275
110
325
79
126
78
265
383
117
170
29
305
115
363
321
88
283
30
302
320
133
291
69
101
311
250
335
342
212
355
209
125
221
37
38
121
241
254
55
279
111
399
310
259
94
266
7
203
61
376
313
31
401
257
109
105
281
193
24
286
185
300
127
235
16
106
96
46
66
86
246
307
149
228
181
323
26
65
217
114
293
229
398
214
154
90
243
340
231
256
9
40
393
368
359
95
62
264
388
34
13
263
191
6
244
301
107
148
53
201
113
258
93
177
329
180
120
298
58
195
163
144
189
132
57
312
317
362
124
175
77
21
360
319
273
74
15
326
151
271
147
10
164
171
353
218
339
87
32
324
292
64
159
396
165
277
112
343
20
358
220
22
262
92
215
39
19
172
84
351
70
122
116
345
290
226
184
365
71
83
25
240
206
150
80
186
386
103
190
327
5
28
67
136
52
282
108
138
3
173
17
140
128
161
267
99
14
156
76
8
167
4
2
338
233
68
102
387
207
202
60
119
11
219
162
247
341

> <PUBCHEM_MMFF94_PARTIAL_CHARGES>
41
1 -0.08
10 -0.15
11 -0.04
12 0.06
13 0.23
14 -0.15
15 -0.14
16 0.42
17 -0.05
18 0.04
19 -0.14
2 -0.34
20 -0.15
21 -0.15
22 -0.15
23 -0.15
24 -0.15
25 -0.15
26 1.16
27 -0.15
28 0.71
29 -0.15
3 -0.34
30 0.15
33 0.15
34 0.15
35 0.15
36 0.15
37 0.15
38 0.15
39 0.15
4 -0.34
40 0.15
41 0.15
42 0.37
43 0.37
5 -0.34
6 -0.57
7 0.38
8 -0.57
9 -0.8

> <PUBCHEM_EFFECTIVE_ROTOR_COUNT>
6

> <PUBCHEM_PHARMACOPHORE_FEATURES>
8
1 5 acceptor
1 6 acceptor
1 9 donor
3 7 8 18 cation
5 1 11 12 14 17 rings
5 7 8 10 13 18 rings
6 10 13 20 21 23 24 rings
6 15 19 22 25 27 29 rings

> <PUBCHEM_HEAVY_ATOM_COUNT>
29

> <PUBCHEM_ATOM_DEF_STEREO_COUNT>
0

> <PUBCHEM_ATOM_UDEF_STEREO_COUNT>
0

> <PUBCHEM_BOND_DEF_STEREO_COUNT>
0

> <PUBCHEM_BOND_UDEF_STEREO_COUNT>
0

> <PUBCHEM_ISOTOPIC_ATOM_COUNT>
0

> <PUBCHEM_COMPONENT_COUNT>
1

> <PUBCHEM_CACTVS_TAUTO_COUNT>
2

> <PUBCHEM_CONFORMER_ID>
009ED6EB00000001

> <PUBCHEM_MMFF94_ENERGY>
71.1656

> <PUBCHEM_FEATURE_SELFOVERLAP>
40.704

> <PUBCHEM_SHAPE_FINGERPRINT>
10169797 241 17901404594414958587
10369192 42 17560504206369920448
10622 236 17911221039208628999
11370993 144 17131273450359917691
11963148 33 17401484244331101023
12107183 9 18410296879185668417
12128747 34 16772679784776294769
12166972 35 17167578263884636414
12236239 1 17386008313110353186
12342043 65 17630898097285612310
12422481 6 17846488258136919798
12553582 1 18335703802131711009
12788726 201 18042417832639629744
13009979 54 18343308093575401001
13402501 40 18059860532294931462
13540713 5 18267594688105510457
13583140 156 16415469454938163827
13782708 43 17988078864790024046
13911882 115 17918275333760091590
14910302 57 18198063577596707678
15537594 2 18186803531015204187
17349148 13 17385725738627380722
17492 89 18120091943206234155
1813 80 18408888421068081037
19026451 147 18259992587190445068
19841028 212 17973163113829403259
21033648 29 17489575754258745947
21033650 10 17899435090485689128
21623969 137 17275382105996718642
21781055 127 17416152558843060137
23366157 5 17970633119575875581
23557571 272 18269835316218531336
23559900 14 18268420399709951729
249057 3 18335696127737751217
3004659 81 18261119581543711007
312425 54 17774729662647843611
335352 9 18408599254817611413
3388396 114 16298971817140486046
3882209 13 17194287827654083623
4280585 95 18335412469994143993
4394409 98 18114445787767910847
4409770 3 17898271824427389749
463206 1 18040713654020326059
5104073 3 18269845375495909697
613672 6 18340758265579580423
6823239 73 18201728340309947374
7399639 24 18129366147613302664
9709674 26 18191029117604462099

> <PUBCHEM_SHAPE_MULTIPOLES>
552.15
14.16
4.24
1.53
2.54
4.27
0.17
-12.42
-3.46
2.15
1.72
-3.09
-0.67
-0.14

> <PUBCHEM_SHAPE_SELFOVERLAP>
1219.054

> <PUBCHEM_SHAPE_VOLUME>
300.5

> <PUBCHEM_COORDINATE_TYPE>
2
5
10

$$$$
