24905318
  -OEChem-10052115153D

 37 40  0     1  0  0  0  0  0999 V2000
    5.8902    1.0601    0.3976 Cl  0  0  0  0  0  0  0  0  0  0  0  0
   -2.8680    3.4058    0.2126 O   0  0  0  0  0  0  0  0  0  0  0  0
    4.1579    1.0278   -2.0575 O   0  0  0  0  0  0  0  0  0  0  0  0
   -2.0188    0.2542    0.2715 N   0  0  0  0  0  0  0  0  0  0  0  0
   -0.8290    0.8786    0.3521 N   0  0  0  0  0  0  0  0  0  0  0  0
   -2.9247   -1.9721   -0.0196 N   0  0  0  0  0  0  0  0  0  0  0  0
   -1.1604   -3.6421   -0.2410 N   0  0  0  0  0  0  0  0  0  0  0  0
    1.1593   -3.0848   -0.1696 N   0  0  0  0  0  0  0  0  0  0  0  0
   -3.2987    1.0647    0.3796 C   0  0  2  0  0  0  0  0  0  0  0  0
   -3.7649    1.5604   -0.9785 C   0  0  0  0  0  0  0  0  0  0  0  0
   -3.2064    2.3758    1.1539 C   0  0  0  0  0  0  0  0  0  0  0  0
   -3.0727    2.9021   -1.1137 C   0  0  0  0  0  0  0  0  0  0  0  0
   -1.9161   -1.0936    0.0944 C   0  0  0  0  0  0  0  0  0  0  0  0
   -0.5611   -1.3717    0.0562 C   0  0  0  0  0  0  0  0  0  0  0  0
    0.0546   -0.1168    0.2202 C   0  0  0  0  0  0  0  0  0  0  0  0
    1.4666    0.1695    0.2559 C   0  0  0  0  0  0  0  0  0  0  0  0
   -0.1931   -2.7015   -0.1188 C   0  0  0  0  0  0  0  0  0  0  0  0
    2.1488    0.4652   -0.9243 C   0  0  0  0  0  0  0  0  0  0  0  0
    2.1511    0.1506    1.4711 C   0  0  0  0  0  0  0  0  0  0  0  0
   -2.4478   -3.2249   -0.1847 C   0  0  0  0  0  0  0  0  0  0  0  0
    3.5155    0.7422   -0.8893 C   0  0  0  0  0  0  0  0  0  0  0  0
    3.5179    0.4273    1.5061 C   0  0  0  0  0  0  0  0  0  0  0  0
    4.2001    0.7231    0.3258 C   0  0  0  0  0  0  0  0  0  0  0  0
   -4.0106    0.3773    0.8499 H   0  0  0  0  0  0  0  0  0  0  0  0
   -4.8503    1.7171   -0.9518 H   0  0  0  0  0  0  0  0  0  0  0  0
   -3.5421    0.8898   -1.8135 H   0  0  0  0  0  0  0  0  0  0  0  0
   -4.1810    2.6387    1.5805 H   0  0  0  0  0  0  0  0  0  0  0  0
   -2.4702    2.3624    1.9627 H   0  0  0  0  0  0  0  0  0  0  0  0
   -2.0916    2.7985   -1.5885 H   0  0  0  0  0  0  0  0  0  0  0  0
   -3.6623    3.6191   -1.6922 H   0  0  0  0  0  0  0  0  0  0  0  0
    1.6158    0.4797   -1.8729 H   0  0  0  0  0  0  0  0  0  0  0  0
    1.6340   -0.0787    2.3999 H   0  0  0  0  0  0  0  0  0  0  0  0
   -3.1965   -4.0032   -0.2859 H   0  0  0  0  0  0  0  0  0  0  0  0
    1.9018   -2.4068   -0.0818 H   0  0  0  0  0  0  0  0  0  0  0  0
    1.3830   -4.0625   -0.2984 H   0  0  0  0  0  0  0  0  0  0  0  0
    4.0373    0.4081    2.4608 H   0  0  0  0  0  0  0  0  0  0  0  0
    3.5194    0.9926   -2.7903 H   0  0  0  0  0  0  0  0  0  0  0  0
  1 23  1  0  0  0  0
  2 11  1  0  0  0  0
  2 12  1  0  0  0  0
  3 21  1  0  0  0  0
  3 37  1  0  0  0  0
  4  5  1  0  0  0  0
  4  9  1  0  0  0  0
  4 13  1  0  0  0  0
  5 15  2  0  0  0  0
  6 13  2  0  0  0  0
  6 20  1  0  0  0  0
  7 17  1  0  0  0  0
  7 20  2  0  0  0  0
  8 17  1  0  0  0  0
  8 34  1  0  0  0  0
  8 35  1  0  0  0  0
  9 10  1  0  0  0  0
  9 11  1  0  0  0  0
  9 24  1  0  0  0  0
 10 12  1  0  0  0  0
 10 25  1  0  0  0  0
 10 26  1  0  0  0  0
 11 27  1  0  0  0  0
 11 28  1  0  0  0  0
 12 29  1  0  0  0  0
 12 30  1  0  0  0  0
 13 14  1  0  0  0  0
 14 15  1  0  0  0  0
 14 17  2  0  0  0  0
 15 16  1  0  0  0  0
 16 18  2  0  0  0  0
 16 19  1  0  0  0  0
 18 21  1  0  0  0  0
 18 31  1  0  0  0  0
 19 22  2  0  0  0  0
 19 32  1  0  0  0  0
 20 33  1  0  0  0  0
 21 23  2  0  0  0  0
 22 23  1  0  0  0  0
 22 36  1  0  0  0  0
M  END
> <PUBCHEM_COMPOUND_CID>
24905318

> <PUBCHEM_CONFORMER_RMSD>
0.6

> <PUBCHEM_CONFORMER_DIVERSEORDER>
1
3
11
17
16
14
19
5
2
18
7
4
20
10
6
13
12
15
9
8

> <PUBCHEM_MMFF94_PARTIAL_CHARGES>
28
1 -0.18
11 0.28
12 0.28
13 0.11
15 0.23
16 0.05
17 0.41
18 -0.15
19 -0.15
2 -0.56
20 0.47
21 0.08
22 -0.15
23 0.18
3 -0.53
31 0.15
32 0.15
33 0.15
34 0.4
35 0.4
36 0.15
37 0.45
4 0.31
5 -0.71
6 -0.57
7 -0.62
8 -0.9
9 0.26

> <PUBCHEM_EFFECTIVE_ROTOR_COUNT>
3

> <PUBCHEM_PHARMACOPHORE_FEATURES>
11
1 2 acceptor
1 3 donor
1 5 acceptor
1 8 cation
1 8 donor
3 4 6 13 cation
3 6 7 20 cation
5 2 9 10 11 12 rings
5 4 5 13 14 15 rings
6 16 18 19 21 22 23 rings
6 6 7 13 14 17 20 rings

> <PUBCHEM_HEAVY_ATOM_COUNT>
23

> <PUBCHEM_ATOM_DEF_STEREO_COUNT>
1

> <PUBCHEM_ATOM_UDEF_STEREO_COUNT>
0

> <PUBCHEM_BOND_DEF_STEREO_COUNT>
0

> <PUBCHEM_BOND_UDEF_STEREO_COUNT>
0

> <PUBCHEM_ISOTOPIC_ATOM_COUNT>
0

> <PUBCHEM_COMPONENT_COUNT>
1

> <PUBCHEM_CACTVS_TAUTO_COUNT>
15

> <PUBCHEM_CONFORMER_ID>
017C066600000001

> <PUBCHEM_MMFF94_ENERGY>
58.3998

> <PUBCHEM_FEATURE_SELFOVERLAP>
56.101

> <PUBCHEM_SHAPE_FINGERPRINT>
10165383 225 18270138819929678601
10411042 1 17762896967238616771
105312 117 18410292475968379580
11725454 13 16914212323059483232
11796584 16 18343590616988218670
11833330 49 18121775299169894875
12107183 9 18191574269397941098
12173636 292 18410852157388099261
12236239 1 17750506446588195426
12422481 6 17826492406957305146
12500047 106 18413383246504215544
12553582 1 18049725418878010411
12788726 201 18045508757314727962
13140716 1 17978794833122573523
13583140 156 17845926433781122626
14178342 30 18337378440140611962
14508225 48 17910097342371478639
14713325 29 18409171042927810059
15042514 8 18265338502555462947
15463212 79 18261386784607737240
15842332 3 17895468224268081226
16752209 62 18338506564260498778
16988056 13 16605461451834817500
1741750 31 18411700958837203609
17818456 19 18264195929838252344
18785283 64 17759819043750575665
20510252 161 18199750404558660195
20645477 56 18341618134990796216
20739085 24 16256464358672251683
21033650 10 18191048835968220380
21065201 7 18342460387358397314
21524375 3 18260546680362067697
22149856 69 18121515553604834417
2255824 54 17764024667136851503
22907989 373 18337387274597942959
23366157 5 17972599875252822667
23557571 272 18129665334866674592
23559900 14 18130795538789202942
23598291 2 17822290232165841238
2748010 2 18267033769217932795
283562 15 18340200916348519355
3091708 16 9342147339197507699
458136 41 18124609578432988241
469060 322 18337687407424368401
474 4 18050279272443665457
559249 180 18408880729610017586
57527295 17 17131280043219054580
59755656 520 17773057309366294097
6327066 14 18261382304825712837
633830 44 17772755974477111025
7615 1 17895466046556332924
77492 1 17750226066754233778
7808743 9 18410013256171570800
81228 2 18124879212111147323
84936 182 17840860785616364937
9862522 239 18040988493224779365
9981440 41 18337105649424198401

> <PUBCHEM_SHAPE_MULTIPOLES>
438.56
8.88
3.93
1.22
9.79
2.36
0.15
-6.46
0.42
-5.4
0.46
0.87
-0.64
-0.16

> <PUBCHEM_SHAPE_SELFOVERLAP>
963.85

> <PUBCHEM_SHAPE_VOLUME>
238.8

> <PUBCHEM_COORDINATE_TYPE>
2
5
10

$$$$
