10037501
  -OEChem-10062122023D

 29 31  0     0  0  0  0  0  0999 V2000
    3.7502    0.4503   -1.6222 O   0  0  0  0  0  0  0  0  0  0  0  0
    4.6646    0.4814    0.6072 O   0  0  0  0  0  0  0  0  0  0  0  0
   -3.3670   -2.0885   -0.4765 O   0  0  0  0  0  0  0  0  0  0  0  0
   -3.7994    0.1973   -0.1128 N   0  0  0  0  0  0  0  0  0  0  0  0
   -1.7025    0.9232    0.2172 N   0  0  0  0  0  0  0  0  0  0  0  0
   -3.4527    2.5214    0.3323 N   0  0  0  0  0  0  0  0  0  0  0  0
    0.8003   -0.7649    0.1581 C   0  0  0  0  0  0  0  0  0  0  0  0
    2.8518    0.0327   -0.6890 C   0  0  0  0  0  0  0  0  0  0  0  0
    3.3741    0.0504    0.5840 C   0  0  0  0  0  0  0  0  0  0  0  0
   -1.6728   -0.4289   -0.0195 C   0  0  0  0  0  0  0  0  0  0  0  0
    1.5566   -0.3732   -0.9369 C   0  0  0  0  0  0  0  0  0  0  0  0
   -0.5904   -1.2077   -0.0538 C   0  0  0  0  0  0  0  0  0  0  0  0
    1.3153   -0.7527    1.4559 C   0  0  0  0  0  0  0  0  0  0  0  0
   -3.0447   -0.9399   -0.2417 C   0  0  0  0  0  0  0  0  0  0  0  0
    2.6300   -0.3370    1.6794 C   0  0  0  0  0  0  0  0  0  0  0  0
   -2.9647    1.2561    0.1549 C   0  0  0  0  0  0  0  0  0  0  0  0
    4.8962    0.7335   -0.7937 C   0  0  0  0  0  0  0  0  0  0  0  0
   -5.2449    0.2466   -0.2431 C   0  0  0  0  0  0  0  0  0  0  0  0
    1.1596   -0.3821   -1.9463 H   0  0  0  0  0  0  0  0  0  0  0  0
   -0.6900   -2.2724   -0.2535 H   0  0  0  0  0  0  0  0  0  0  0  0
    0.7077   -1.0637    2.3022 H   0  0  0  0  0  0  0  0  0  0  0  0
    3.0454   -0.3220    2.6806 H   0  0  0  0  0  0  0  0  0  0  0  0
    5.1689    1.7876   -0.9203 H   0  0  0  0  0  0  0  0  0  0  0  0
    5.7337    0.1107   -1.1285 H   0  0  0  0  0  0  0  0  0  0  0  0
   -5.6690    0.6294    0.6896 H   0  0  0  0  0  0  0  0  0  0  0  0
   -5.6477   -0.7463   -0.4576 H   0  0  0  0  0  0  0  0  0  0  0  0
   -5.5016    0.9376   -1.0512 H   0  0  0  0  0  0  0  0  0  0  0  0
   -2.8308    3.2980    0.5294 H   0  0  0  0  0  0  0  0  0  0  0  0
   -4.4435    2.7277    0.2733 H   0  0  0  0  0  0  0  0  0  0  0  0
  1  8  1  0  0  0  0
  1 17  1  0  0  0  0
  2  9  1  0  0  0  0
  2 17  1  0  0  0  0
  3 14  2  0  0  0  0
  4 14  1  0  0  0  0
  4 16  1  0  0  0  0
  4 18  1  0  0  0  0
  5 10  1  0  0  0  0
  5 16  2  0  0  0  0
  6 16  1  0  0  0  0
  6 28  1  0  0  0  0
  6 29  1  0  0  0  0
  7 11  2  0  0  0  0
  7 12  1  0  0  0  0
  7 13  1  0  0  0  0
  8  9  2  0  0  0  0
  8 11  1  0  0  0  0
  9 15  1  0  0  0  0
 10 12  2  0  0  0  0
 10 14  1  0  0  0  0
 11 19  1  0  0  0  0
 12 20  1  0  0  0  0
 13 15  2  0  0  0  0
 13 21  1  0  0  0  0
 15 22  1  0  0  0  0
 17 23  1  0  0  0  0
 17 24  1  0  0  0  0
 18 25  1  0  0  0  0
 18 26  1  0  0  0  0
 18 27  1  0  0  0  0
M  END
> <PUBCHEM_COMPOUND_CID>
10037501

> <PUBCHEM_CONFORMER_RMSD>
0.6

> <PUBCHEM_CONFORMER_DIVERSEORDER>
2
4
5
3
1
6

> <PUBCHEM_MMFF94_PARTIAL_CHARGES>
24
1 -0.36
10 0.19
11 -0.15
12 -0.18
13 -0.15
14 0.62
15 -0.15
16 0.56
17 0.56
18 0.3
19 0.15
2 -0.36
20 0.15
21 0.15
22 0.15
28 0.4
29 0.4
3 -0.57
4 -0.42
5 -0.62
6 -0.85
7 0.03
8 0.08
9 0.08

> <PUBCHEM_EFFECTIVE_ROTOR_COUNT>
1.8

> <PUBCHEM_PHARMACOPHORE_FEATURES>
7
1 1 acceptor
1 2 acceptor
1 3 acceptor
1 6 donor
5 1 2 8 9 17 rings
5 4 5 10 14 16 rings
6 7 8 9 11 13 15 rings

> <PUBCHEM_HEAVY_ATOM_COUNT>
18

> <PUBCHEM_ATOM_DEF_STEREO_COUNT>
0

> <PUBCHEM_ATOM_UDEF_STEREO_COUNT>
0

> <PUBCHEM_BOND_DEF_STEREO_COUNT>
1

> <PUBCHEM_BOND_UDEF_STEREO_COUNT>
0

> <PUBCHEM_ISOTOPIC_ATOM_COUNT>
0

> <PUBCHEM_COMPONENT_COUNT>
1

> <PUBCHEM_CACTVS_TAUTO_COUNT>
2

> <PUBCHEM_CONFORMER_ID>
009928FD00000002

> <PUBCHEM_MMFF94_ENERGY>
46.1982

> <PUBCHEM_FEATURE_SELFOVERLAP>
35.679

> <PUBCHEM_SHAPE_FINGERPRINT>
10366900 7 17775279469932584795
10498660 4 18271806757378062737
10646746 165 18342735217667292664
12173636 292 18341889646118010527
12236239 1 17967810552588040195
12390115 104 17844821291668084569
12788726 201 17318747029454235498
12916748 109 18411425015767710146
13675066 3 13045942417229804714
13897977 58 18408605859939177257
14252887 29 14779543457527640608
14386348 63 17203328931105117551
14739800 52 18265599065837602272
17357779 13 16343703210007039408
18186145 218 17203611484182157050
200 152 16805597097117086063
204376 136 16370731460738835506
20645477 56 18272373053537586683
20645477 70 15502640586438104546
221357 26 16056598725251330881
22854114 59 16008749117144587622
23048698 100 17458341918536220563
23402539 116 18339918307225830734
23557571 272 17989212533675104085
23559900 14 18059579044939168934
3268164 11 18272640260506489429
3472631 163 18410295779035866949
4028521 119 17917429791747929761
4340502 62 16515693204644519577
474 4 17385731326274324452
4990 188 17203890755851012374
5281201 14 17203614782912277696
542803 24 17967532376357105519
6049 1 17418371432529884763
633830 44 17604161358626217854
77492 1 17967808349275163658
7808743 9 18340489958772885897

> <PUBCHEM_SHAPE_MULTIPOLES>
337.88
10.32
1.5
1.18
0.88
0.34
-0.15
3.04
1.29
1.8
-0.07
-1.33
-0.08
-1

> <PUBCHEM_SHAPE_SELFOVERLAP>
750.642

> <PUBCHEM_SHAPE_VOLUME>
183.3

> <PUBCHEM_COORDINATE_TYPE>
2
5
10

$$$$
