9549184
  -OEChem-10052115183D

 85 91  0     0  0  0  0  0  0999 V2000
  -10.7392   -4.4909    0.9392 O   0  0  0  0  0  0  0  0  0  0  0  0
    3.3605    0.3990    2.5834 O   0  0  0  0  0  0  0  0  0  0  0  0
    5.2316   -0.4597   -2.0483 O   0  0  0  0  0  0  0  0  0  0  0  0
   -7.3816   -0.9365   -0.0640 N   0  0  0  0  0  0  0  0  0  0  0  0
   -2.5268    2.0914   -0.0049 N   0  0  0  0  0  0  0  0  0  0  0  0
   -9.5505   -2.8072   -0.1319 N   0  0  0  0  0  0  0  0  0  0  0  0
   -1.4955    1.2278    0.0403 N   0  0  0  0  0  0  0  0  0  0  0  0
   -2.9432    4.4757   -0.0676 N   0  0  0  0  0  0  0  0  0  0  0  0
   -0.8665    5.7551   -0.0423 N   0  0  0  0  0  0  0  0  0  0  0  0
    1.2839    4.7221    0.0341 N   0  0  0  0  0  0  0  0  0  0  0  0
    4.7345   -0.2233    0.2157 N   0  0  0  0  0  0  0  0  0  0  0  0
    7.9924   -1.0943   -1.2414 N   0  0  0  0  0  0  0  0  0  0  0  0
   -5.9771   -0.5319   -0.0369 C   0  0  0  0  0  0  0  0  0  0  0  0
   -3.9021    1.5764   -0.0290 C   0  0  0  0  0  0  0  0  0  0  0  0
   -5.6373    0.2502   -1.3104 C   0  0  0  0  0  0  0  0  0  0  0  0
   -5.7020    0.3043    1.2177 C   0  0  0  0  0  0  0  0  0  0  0  0
   -4.1915    0.7472   -1.2908 C   0  0  0  0  0  0  0  0  0  0  0  0
   -4.2567    0.8018    1.2509 C   0  0  0  0  0  0  0  0  0  0  0  0
   -7.7102   -1.7411    1.1218 C   0  0  0  0  0  0  0  0  0  0  0  0
   -7.6792   -1.6869   -1.2930 C   0  0  0  0  0  0  0  0  0  0  0  0
   -9.1862   -2.1371    1.1154 C   0  0  0  0  0  0  0  0  0  0  0  0
   -9.1543   -2.0884   -1.3465 C   0  0  0  0  0  0  0  0  0  0  0  0
   -2.1424    3.3992   -0.0236 C   0  0  0  0  0  0  0  0  0  0  0  0
   -0.7591    3.3911    0.0120 C   0  0  0  0  0  0  0  0  0  0  0  0
   -0.4218    2.0254    0.0504 C   0  0  0  0  0  0  0  0  0  0  0  0
  -10.3235   -3.9669   -0.0973 C   0  0  0  0  0  0  0  0  0  0  0  0
   -0.1190    4.6261    0.0015 C   0  0  0  0  0  0  0  0  0  0  0  0
    0.8983    1.4489    0.0970 C   0  0  0  0  0  0  0  0  0  0  0  0
  -10.6510   -4.5988   -1.4268 C   0  0  0  0  0  0  0  0  0  0  0  0
   -2.2129    5.6118   -0.0737 C   0  0  0  0  0  0  0  0  0  0  0  0
    1.5063    1.1961    1.3267 C   0  0  0  0  0  0  0  0  0  0  0  0
    1.5681    1.1438   -1.0880 C   0  0  0  0  0  0  0  0  0  0  0  0
    2.7838    0.6379    1.3716 C   0  0  0  0  0  0  0  0  0  0  0  0
    2.8458    0.5859   -1.0431 C   0  0  0  0  0  0  0  0  0  0  0  0
    3.4536    0.3329    0.1866 C   0  0  0  0  0  0  0  0  0  0  0  0
    5.5547   -0.5895   -0.8695 C   0  0  0  0  0  0  0  0  0  0  0  0
    6.8460   -1.1937   -0.4995 C   0  0  0  0  0  0  0  0  0  0  0  0
    3.1260   -0.8787    3.1712 C   0  0  0  0  0  0  0  0  0  0  0  0
    9.0198   -1.7685   -0.6206 C   0  0  0  0  0  0  0  0  0  0  0  0
    8.5019   -2.3130    0.5565 C   0  0  0  0  0  0  0  0  0  0  0  0
    7.1294   -1.9424    0.6195 C   0  0  0  0  0  0  0  0  0  0  0  0
    8.1077   -0.3827   -2.4977 C   0  0  0  0  0  0  0  0  0  0  0  0
   10.3543   -1.9360   -1.0071 C   0  0  0  0  0  0  0  0  0  0  0  0
    9.3558   -3.0618    1.3905 C   0  0  0  0  0  0  0  0  0  0  0  0
   11.1825   -2.6829   -0.1643 C   0  0  0  0  0  0  0  0  0  0  0  0
   10.6930   -3.2379    1.0165 C   0  0  0  0  0  0  0  0  0  0  0  0
   -5.3322   -1.4224   -0.0044 H   0  0  0  0  0  0  0  0  0  0  0  0
   -4.5501    2.4627   -0.0647 H   0  0  0  0  0  0  0  0  0  0  0  0
   -6.3141    1.1058   -1.4324 H   0  0  0  0  0  0  0  0  0  0  0  0
   -5.7118   -0.3656   -2.2118 H   0  0  0  0  0  0  0  0  0  0  0  0
   -5.8347   -0.2688    2.1398 H   0  0  0  0  0  0  0  0  0  0  0  0
   -6.3827    1.1643    1.2636 H   0  0  0  0  0  0  0  0  0  0  0  0
   -3.9985    1.3495   -2.1872 H   0  0  0  0  0  0  0  0  0  0  0  0
   -3.5124   -0.1138   -1.3415 H   0  0  0  0  0  0  0  0  0  0  0  0
   -3.5821   -0.0555    1.3737 H   0  0  0  0  0  0  0  0  0  0  0  0
   -4.1095    1.4426    2.1291 H   0  0  0  0  0  0  0  0  0  0  0  0
   -7.0860   -2.6432    1.1674 H   0  0  0  0  0  0  0  0  0  0  0  0
   -7.5732   -1.1868    2.0534 H   0  0  0  0  0  0  0  0  0  0  0  0
   -7.5329   -1.0860   -2.1941 H   0  0  0  0  0  0  0  0  0  0  0  0
   -7.0488   -2.5826   -1.3686 H   0  0  0  0  0  0  0  0  0  0  0  0
   -9.8248   -1.2494    1.2039 H   0  0  0  0  0  0  0  0  0  0  0  0
   -9.4005   -2.7800    1.9754 H   0  0  0  0  0  0  0  0  0  0  0  0
   -9.3355   -2.6808   -2.2455 H   0  0  0  0  0  0  0  0  0  0  0  0
   -9.7923   -1.1981   -1.4119 H   0  0  0  0  0  0  0  0  0  0  0  0
  -11.2412   -5.5058   -1.2632 H   0  0  0  0  0  0  0  0  0  0  0  0
  -11.2435   -3.9116   -2.0366 H   0  0  0  0  0  0  0  0  0  0  0  0
   -9.7320   -4.8799   -1.9479 H   0  0  0  0  0  0  0  0  0  0  0  0
   -2.7808    6.5354   -0.1083 H   0  0  0  0  0  0  0  0  0  0  0  0
    0.9915    1.4323    2.2558 H   0  0  0  0  0  0  0  0  0  0  0  0
    1.1068    1.3359   -2.0540 H   0  0  0  0  0  0  0  0  0  0  0  0
    1.8668    3.8988    0.0672 H   0  0  0  0  0  0  0  0  0  0  0  0
    1.7087    5.6397    0.0251 H   0  0  0  0  0  0  0  0  0  0  0  0
    3.2869    0.3833   -2.0074 H   0  0  0  0  0  0  0  0  0  0  0  0
    5.1113   -0.3652    1.1499 H   0  0  0  0  0  0  0  0  0  0  0  0
    3.6812   -0.9299    4.1118 H   0  0  0  0  0  0  0  0  0  0  0  0
    3.4770   -1.6809    2.5144 H   0  0  0  0  0  0  0  0  0  0  0  0
    2.0607   -1.0098    3.3863 H   0  0  0  0  0  0  0  0  0  0  0  0
    6.4337   -2.2094    1.4040 H   0  0  0  0  0  0  0  0  0  0  0  0
    9.1555   -0.1925   -2.7353 H   0  0  0  0  0  0  0  0  0  0  0  0
    7.5991    0.5809   -2.4087 H   0  0  0  0  0  0  0  0  0  0  0  0
    7.6526   -0.9953   -3.2799 H   0  0  0  0  0  0  0  0  0  0  0  0
   10.7499   -1.5146   -1.9244 H   0  0  0  0  0  0  0  0  0  0  0  0
    8.9874   -3.5001    2.3136 H   0  0  0  0  0  0  0  0  0  0  0  0
   12.2243   -2.8332   -0.4358 H   0  0  0  0  0  0  0  0  0  0  0  0
   11.3562   -3.8149    1.6556 H   0  0  0  0  0  0  0  0  0  0  0  0
  1 26  2  0  0  0  0
  2 33  1  0  0  0  0
  2 38  1  0  0  0  0
  3 36  2  0  0  0  0
  4 13  1  0  0  0  0
  4 19  1  0  0  0  0
  4 20  1  0  0  0  0
  5  7  1  0  0  0  0
  5 14  1  0  0  0  0
  5 23  1  0  0  0  0
  6 21  1  0  0  0  0
  6 22  1  0  0  0  0
  6 26  1  0  0  0  0
  7 25  2  0  0  0  0
  8 23  2  0  0  0  0
  8 30  1  0  0  0  0
  9 27  1  0  0  0  0
  9 30  2  0  0  0  0
 10 27  1  0  0  0  0
 10 71  1  0  0  0  0
 10 72  1  0  0  0  0
 11 35  1  0  0  0  0
 11 36  1  0  0  0  0
 11 74  1  0  0  0  0
 12 37  1  0  0  0  0
 12 39  1  0  0  0  0
 12 42  1  0  0  0  0
 13 15  1  0  0  0  0
 13 16  1  0  0  0  0
 13 47  1  0  0  0  0
 14 17  1  0  0  0  0
 14 18  1  0  0  0  0
 14 48  1  0  0  0  0
 15 17  1  0  0  0  0
 15 49  1  0  0  0  0
 15 50  1  0  0  0  0
 16 18  1  0  0  0  0
 16 51  1  0  0  0  0
 16 52  1  0  0  0  0
 17 53  1  0  0  0  0
 17 54  1  0  0  0  0
 18 55  1  0  0  0  0
 18 56  1  0  0  0  0
 19 21  1  0  0  0  0
 19 57  1  0  0  0  0
 19 58  1  0  0  0  0
 20 22  1  0  0  0  0
 20 59  1  0  0  0  0
 20 60  1  0  0  0  0
 21 61  1  0  0  0  0
 21 62  1  0  0  0  0
 22 63  1  0  0  0  0
 22 64  1  0  0  0  0
 23 24  1  0  0  0  0
 24 25  1  0  0  0  0
 24 27  2  0  0  0  0
 25 28  1  0  0  0  0
 26 29  1  0  0  0  0
 28 31  2  0  0  0  0
 28 32  1  0  0  0  0
 29 65  1  0  0  0  0
 29 66  1  0  0  0  0
 29 67  1  0  0  0  0
 30 68  1  0  0  0  0
 31 33  1  0  0  0  0
 31 69  1  0  0  0  0
 32 34  2  0  0  0  0
 32 70  1  0  0  0  0
 33 35  2  0  0  0  0
 34 35  1  0  0  0  0
 34 73  1  0  0  0  0
 36 37  1  0  0  0  0
 37 41  2  0  0  0  0
 38 75  1  0  0  0  0
 38 76  1  0  0  0  0
 38 77  1  0  0  0  0
 39 40  1  0  0  0  0
 39 43  2  0  0  0  0
 40 41  1  0  0  0  0
 40 44  2  0  0  0  0
 41 78  1  0  0  0  0
 42 79  1  0  0  0  0
 42 80  1  0  0  0  0
 42 81  1  0  0  0  0
 43 45  1  0  0  0  0
 43 82  1  0  0  0  0
 44 46  1  0  0  0  0
 44 83  1  0  0  0  0
 45 46  2  0  0  0  0
 45 84  1  0  0  0  0
 46 85  1  0  0  0  0
M  END
> <PUBCHEM_COMPOUND_CID>
9549184

> <PUBCHEM_CONFORMER_RMSD>
1.2

> <PUBCHEM_CONFORMER_DIVERSEORDER>
2
4
9
6
13
10
12
14
5
18
8
16
7
21
15
1
17
3
19
11
22
20

> <PUBCHEM_MMFF94_PARTIAL_CHARGES>
52
1 -0.57
10 -0.9
11 -0.55
12 0.05
13 0.27
14 0.26
19 0.27
2 -0.36
20 0.27
21 0.3
22 0.3
23 0.11
25 0.23
26 0.57
27 0.41
28 0.05
29 0.06
3 -0.57
30 0.47
31 -0.15
32 -0.15
33 0.08
34 -0.15
35 0.12
36 0.71
37 -0.24
38 0.28
39 -0.15
4 -0.81
41 -0.15
42 0.26
43 -0.15
44 -0.15
45 -0.15
46 -0.15
5 0.31
6 -0.66
68 0.15
69 0.15
7 -0.71
70 0.15
71 0.4
72 0.4
73 0.15
74 0.37
78 0.15
8 -0.57
82 0.15
83 0.15
84 0.15
85 0.15
9 -0.62

> <PUBCHEM_EFFECTIVE_ROTOR_COUNT>
10.4

> <PUBCHEM_PHARMACOPHORE_FEATURES>
18
1 1 acceptor
1 10 cation
1 10 donor
1 11 donor
1 12 cation
1 2 acceptor
1 3 acceptor
1 4 cation
1 7 acceptor
3 5 8 23 cation
3 8 9 30 cation
5 12 37 39 40 41 rings
5 5 7 23 24 25 rings
6 13 14 15 16 17 18 rings
6 28 31 32 33 34 35 rings
6 39 40 43 44 45 46 rings
6 4 6 19 20 21 22 rings
6 8 9 23 24 27 30 rings

> <PUBCHEM_HEAVY_ATOM_COUNT>
46

> <PUBCHEM_ATOM_DEF_STEREO_COUNT>
0

> <PUBCHEM_ATOM_UDEF_STEREO_COUNT>
0

> <PUBCHEM_BOND_DEF_STEREO_COUNT>
0

> <PUBCHEM_BOND_UDEF_STEREO_COUNT>
0

> <PUBCHEM_ISOTOPIC_ATOM_COUNT>
0

> <PUBCHEM_COMPONENT_COUNT>
1

> <PUBCHEM_CACTVS_TAUTO_COUNT>
14

> <PUBCHEM_CONFORMER_ID>
0091B58000000002

> <PUBCHEM_MMFF94_ENERGY>
126.5214

> <PUBCHEM_FEATURE_SELFOVERLAP>
91.724

> <PUBCHEM_SHAPE_FINGERPRINT>
10100884 174 18334296470262057010
10162869 55 17603874374198230446
10411042 1 18411138052425084869
10533779 47 15698013920043009526
10952577 141 16155098393681388693
11135926 11 16154568450208803272
11181472 205 9439400234471570926
11411753 29 18201429260442425296
11578821 258 9654990270558811466
11607047 74 18192151727393218236
11672396 167 18341893048613427767
12013929 94 18410294680389259174
12522641 68 11674883294826079713
12539745 222 17988925518180338249
13692115 27 18410570700272629481
13974486 7 18340199791236393111
14359421 15 18259702320516621099
14965480 1 17560257812481058030
15264996 74 16806726158062558868
15274700 34 18343866620170800020
16991971 28 18408323319884346137
17686467 74 18411696553346119560
17852330 31 15194989600697937502
19303781 99 18341602733406937045
20721686 146 8502368941294494178
20737093 207 17968647204878373602
21987483 16 18340483465462439584
22002106 203 18341891917855341259
23523766 6 18262238932290994693
23523787 8 15574709231817483833
23569943 247 18338523054006154763
23576562 1 14635738413409361030
25242607 90 18201154438437847559
255183 451 18338801225546820829
2835820 83 18410575115535744527
2851757 41 18335985359267617363
3918712 181 8502382122523134887
4330586 98 18040726882956680432
4339292 15 18271800190414862484
437795 160 18265325128939322368
44280117 145 18339644413568524116
4516262 110 8502392014080269353
46848820 9 17485916751793645943
54039377 194 18408605859469861183
6204607 403 11598848789544170546

> <PUBCHEM_SHAPE_MULTIPOLES>
884.22
42.34
6.9
1.81
5.9
7.09
0.48
-83.99
-5.87
-12.83
-0.02
1.84
-0.89
-1.8

> <PUBCHEM_SHAPE_SELFOVERLAP>
1941.836

> <PUBCHEM_SHAPE_VOLUME>
473.8

> <PUBCHEM_COORDINATE_TYPE>
2
5
10

$$$$
