52945845
  -OEChem-10052115143D

 39 41  0     0  0  0  0  0  0999 V2000
    5.4147    0.8183   -0.9307 O   0  0  0  0  0  0  0  0  0  0  0  0
   -2.3171    1.0366   -0.0949 N   0  0  0  0  0  0  0  0  0  0  0  0
   -1.0598    1.4025    0.2168 N   0  0  0  0  0  0  0  0  0  0  0  0
   -3.6199   -0.9673   -0.4813 N   0  0  0  0  0  0  0  0  0  0  0  0
   -2.2673   -2.9829   -0.2399 N   0  0  0  0  0  0  0  0  0  0  0  0
    0.0539   -2.9202    0.3123 N   0  0  0  0  0  0  0  0  0  0  0  0
   -3.3241    2.0511   -0.2977 C   0  0  0  0  0  0  0  0  0  0  0  0
   -2.4850   -0.3130   -0.1873 C   0  0  0  0  0  0  0  0  0  0  0  0
   -1.2481   -0.8712    0.0836 C   0  0  0  0  0  0  0  0  0  0  0  0
   -0.4137    0.2362    0.3242 C   0  0  0  0  0  0  0  0  0  0  0  0
   -2.9749    2.9637   -1.4759 C   0  0  0  0  0  0  0  0  0  0  0  0
   -3.5630    2.8695    0.9735 C   0  0  0  0  0  0  0  0  0  0  0  0
    0.9897    0.2224    0.6516 C   0  0  0  0  0  0  0  0  0  0  0  0
   -1.1596   -2.2590    0.0504 C   0  0  0  0  0  0  0  0  0  0  0  0
    1.9438    0.2640   -0.3651 C   0  0  0  0  0  0  0  0  0  0  0  0
    1.3939    0.1673    1.9857 C   0  0  0  0  0  0  0  0  0  0  0  0
    3.3020    0.2507   -0.0479 C   0  0  0  0  0  0  0  0  0  0  0  0
   -3.4123   -2.3018   -0.4841 C   0  0  0  0  0  0  0  0  0  0  0  0
    2.7521    0.1537    2.3028 C   0  0  0  0  0  0  0  0  0  0  0  0
    3.7063    0.1957    1.2861 C   0  0  0  0  0  0  0  0  0  0  0  0
    4.2973    0.2933   -1.1076 C   0  0  0  0  0  0  0  0  0  0  0  0
    3.9910   -0.3095   -2.4744 C   0  0  0  0  0  0  0  0  0  0  0  0
   -4.2613    1.5368   -0.5426 H   0  0  0  0  0  0  0  0  0  0  0  0
   -2.0640    3.5418   -1.2848 H   0  0  0  0  0  0  0  0  0  0  0  0
   -3.7875    3.6715   -1.6706 H   0  0  0  0  0  0  0  0  0  0  0  0
   -2.8118    2.3780   -2.3875 H   0  0  0  0  0  0  0  0  0  0  0  0
   -2.6744    3.4433    1.2590 H   0  0  0  0  0  0  0  0  0  0  0  0
   -3.8216    2.2165    1.8145 H   0  0  0  0  0  0  0  0  0  0  0  0
   -4.3873    3.5760    0.8291 H   0  0  0  0  0  0  0  0  0  0  0  0
    1.6167    0.3194   -1.4011 H   0  0  0  0  0  0  0  0  0  0  0  0
    0.6628    0.1336    2.7900 H   0  0  0  0  0  0  0  0  0  0  0  0
   -4.2795   -2.9118   -0.7129 H   0  0  0  0  0  0  0  0  0  0  0  0
    3.0668    0.1096    3.3413 H   0  0  0  0  0  0  0  0  0  0  0  0
    4.7600    0.1802    1.5525 H   0  0  0  0  0  0  0  0  0  0  0  0
    0.0743   -3.9306    0.2776 H   0  0  0  0  0  0  0  0  0  0  0  0
    0.8956   -2.4077    0.5305 H   0  0  0  0  0  0  0  0  0  0  0  0
    4.9239   -0.6575   -2.9281 H   0  0  0  0  0  0  0  0  0  0  0  0
    3.3302   -1.1753   -2.3777 H   0  0  0  0  0  0  0  0  0  0  0  0
    3.5336    0.4487   -3.1145 H   0  0  0  0  0  0  0  0  0  0  0  0
  1 21  2  0  0  0  0
  2  3  1  0  0  0  0
  2  7  1  0  0  0  0
  2  8  1  0  0  0  0
  3 10  2  0  0  0  0
  4  8  2  0  0  0  0
  4 18  1  0  0  0  0
  5 14  1  0  0  0  0
  5 18  2  0  0  0  0
  6 14  1  0  0  0  0
  6 35  1  0  0  0  0
  6 36  1  0  0  0  0
  7 11  1  0  0  0  0
  7 12  1  0  0  0  0
  7 23  1  0  0  0  0
  8  9  1  0  0  0  0
  9 10  1  0  0  0  0
  9 14  2  0  0  0  0
 10 13  1  0  0  0  0
 11 24  1  0  0  0  0
 11 25  1  0  0  0  0
 11 26  1  0  0  0  0
 12 27  1  0  0  0  0
 12 28  1  0  0  0  0
 12 29  1  0  0  0  0
 13 15  2  0  0  0  0
 13 16  1  0  0  0  0
 15 17  1  0  0  0  0
 15 30  1  0  0  0  0
 16 19  2  0  0  0  0
 16 31  1  0  0  0  0
 17 20  2  0  0  0  0
 17 21  1  0  0  0  0
 18 32  1  0  0  0  0
 19 20  1  0  0  0  0
 19 33  1  0  0  0  0
 20 34  1  0  0  0  0
 21 22  1  0  0  0  0
 22 37  1  0  0  0  0
 22 38  1  0  0  0  0
 22 39  1  0  0  0  0
M  END
> <PUBCHEM_COMPOUND_CID>
52945845

> <PUBCHEM_CONFORMER_RMSD>
0.6

> <PUBCHEM_CONFORMER_DIVERSEORDER>
1
7
25
14
13
15
17
20
21
10
19
12
8
11
5
18
6
9
22
24
23
2
16
4
3

> <PUBCHEM_MMFF94_PARTIAL_CHARGES>
26
1 -0.57
10 0.23
13 0.05
14 0.41
15 -0.15
16 -0.15
17 0.09
18 0.47
19 -0.15
2 0.31
20 -0.15
21 0.42
22 0.06
3 -0.71
30 0.15
31 0.15
32 0.15
33 0.15
34 0.15
35 0.4
36 0.4
4 -0.57
5 -0.62
6 -0.9
7 0.26
8 0.11

> <PUBCHEM_EFFECTIVE_ROTOR_COUNT>
3

> <PUBCHEM_PHARMACOPHORE_FEATURES>
10
1 1 acceptor
1 3 acceptor
1 6 cation
1 6 donor
3 2 4 8 cation
3 4 5 18 cation
3 7 11 12 hydrophobe
5 2 3 8 9 10 rings
6 13 15 16 17 19 20 rings
6 4 5 8 9 14 18 rings

> <PUBCHEM_HEAVY_ATOM_COUNT>
22

> <PUBCHEM_ATOM_DEF_STEREO_COUNT>
0

> <PUBCHEM_ATOM_UDEF_STEREO_COUNT>
0

> <PUBCHEM_BOND_DEF_STEREO_COUNT>
0

> <PUBCHEM_BOND_UDEF_STEREO_COUNT>
0

> <PUBCHEM_ISOTOPIC_ATOM_COUNT>
0

> <PUBCHEM_COMPONENT_COUNT>
1

> <PUBCHEM_CACTVS_TAUTO_COUNT>
10

> <PUBCHEM_CONFORMER_ID>
0327E3B500000001

> <PUBCHEM_MMFF94_ENERGY>
55.1228

> <PUBCHEM_FEATURE_SELFOVERLAP>
51.025

> <PUBCHEM_SHAPE_FINGERPRINT>
10165383 225 18197793115301480281
10498660 4 18337947900700412508
11640471 11 17603307033622219908
11796584 16 18200035037196728446
12160290 23 18339345436404156219
12173636 292 18337094671313871997
12236239 1 17676196996606523826
12390115 104 18200886058985604641
12553582 1 18191861438995370739
12714826 92 18342742965419042739
12788726 201 18187924040574624795
13140716 1 18122332743545065659
14022347 108 18046900756521446875
14251757 17 17846505798656658542
15842332 3 17749935709531876418
15961568 22 17975966889306253628
16752209 62 18337096947609550467
16945 1 18338783611684810715
18186145 218 17917991655037546304
18785283 64 17255967763097727905
19049666 15 17846777390750032506
20510252 161 18271512204531384521
20642791 178 17403186897624501521
20645477 70 16415476056598465188
20693207 138 17774450498315662100
20739085 24 16256172979553710507
20871999 31 18341055189574928652
21033650 10 18262256447282879108
21065201 7 18341889706189588674
21618674 53 17895203190062475120
21756936 100 17313968371557095996
22182313 1 17632005455575687584
22907989 373 18262779865977390181
23366157 5 17754447967988077323
23557571 272 18272364334749247224
23559900 14 18130507436546144054
23598291 2 17676476221104689546
312425 83 18117590416792511516
350125 39 18195523697758436243
3729539 64 17548727100141657670
458136 41 17980768138840775249
474 4 16370729274927483884
57527295 17 17131265736356054317
59755656 215 18202565060459192687
59755656 520 17630906914758408633
6049 1 17846494893597537792
633830 44 17702933726328311169
7615 1 17604129485462826744
77492 1 17676475155831442010
81228 2 18338789143612990835
88987 49 18337376193603599760

> <PUBCHEM_SHAPE_MULTIPOLES>
421.98
8.72
3.01
1.73
6.43
0.77
-0.05
-3.13
2.99
-5.35
0.42
2.35
-0.48
-0.06

> <PUBCHEM_SHAPE_SELFOVERLAP>
921.489

> <PUBCHEM_SHAPE_VOLUME>
229.1

> <PUBCHEM_COORDINATE_TYPE>
2
5
10

$$$$
