448014
  -OEChem-10062121573D

 33 34  0     0  0  0  0  0  0999 V2000
   -3.7454   -0.3970    1.1550 S   0  0  0  0  0  0  0  0  0  0  0  0
    5.8772    1.8150    0.6650 O   0  0  0  0  0  0  0  0  0  0  0  0
   -0.0565   -0.7958   -1.6350 O   0  0  0  0  0  0  0  0  0  0  0  0
   -6.7667    1.4960   -0.3587 O   0  5  0  0  0  0  0  0  0  0  0  0
   -6.4612    0.5576    1.6070 O   0  0  0  0  0  0  0  0  0  0  0  0
    0.7758   -1.9077    0.2103 N   0  0  0  0  0  0  0  0  0  0  0  0
   -1.3523   -1.0535    0.3115 N   0  0  0  0  0  0  0  0  0  0  0  0
   -2.7957    0.1689   -1.1818 N   0  0  0  0  0  0  0  0  0  0  0  0
   -6.0391    0.8564    0.4534 N   0  3  0  0  0  0  0  0  0  0  0  0
    3.0728   -1.1520   -0.0843 C   0  0  0  0  0  0  0  0  0  0  0  0
    2.0652   -2.2177   -0.3533 C   0  0  0  0  0  0  0  0  0  0  0  0
    3.8585   -1.2095    1.0666 C   0  0  0  0  0  0  0  0  0  0  0  0
    3.2295   -0.0974   -0.9839 C   0  0  0  0  0  0  0  0  0  0  0  0
    4.9577    0.8422    0.4188 C   0  0  0  0  0  0  0  0  0  0  0  0
    4.8008   -0.2124    1.3183 C   0  0  0  0  0  0  0  0  0  0  0  0
    4.1720    0.8998   -0.7323 C   0  0  0  0  0  0  0  0  0  0  0  0
   -0.2151   -1.2025   -0.4867 C   0  0  0  0  0  0  0  0  0  0  0  0
   -2.5371   -0.4074   -0.0474 C   0  0  0  0  0  0  0  0  0  0  0  0
   -4.7489    0.4730    0.0701 C   0  0  0  0  0  0  0  0  0  0  0  0
   -4.0773    0.6798   -1.1167 C   0  0  0  0  0  0  0  0  0  0  0  0
    5.9857    2.8641   -0.2958 C   0  0  0  0  0  0  0  0  0  0  0  0
    1.9611   -2.3835   -1.4323 H   0  0  0  0  0  0  0  0  0  0  0  0
    2.3889   -3.1720    0.0781 H   0  0  0  0  0  0  0  0  0  0  0  0
    3.7449   -2.0247    1.7762 H   0  0  0  0  0  0  0  0  0  0  0  0
    2.6271   -0.0418   -1.8865 H   0  0  0  0  0  0  0  0  0  0  0  0
    0.5867   -2.1950    1.1656 H   0  0  0  0  0  0  0  0  0  0  0  0
    5.4097   -0.2623    2.2169 H   0  0  0  0  0  0  0  0  0  0  0  0
    4.2424    1.6893   -1.4726 H   0  0  0  0  0  0  0  0  0  0  0  0
   -1.3389   -1.4459    1.2484 H   0  0  0  0  0  0  0  0  0  0  0  0
   -4.4728    1.2013   -1.9787 H   0  0  0  0  0  0  0  0  0  0  0  0
    5.0585    3.4429   -0.3660 H   0  0  0  0  0  0  0  0  0  0  0  0
    6.3134    2.4854   -1.2699 H   0  0  0  0  0  0  0  0  0  0  0  0
    6.7635    3.5483    0.0591 H   0  0  0  0  0  0  0  0  0  0  0  0
  1 18  1  0  0  0  0
  1 19  1  0  0  0  0
  2 14  1  0  0  0  0
  2 21  1  0  0  0  0
  3 17  2  0  0  0  0
  4  9  1  0  0  0  0
  5  9  2  0  0  0  0
  6 11  1  0  0  0  0
  6 17  1  0  0  0  0
  6 26  1  0  0  0  0
  7 17  1  0  0  0  0
  7 18  1  0  0  0  0
  7 29  1  0  0  0  0
  8 18  2  0  0  0  0
  8 20  1  0  0  0  0
  9 19  1  0  0  0  0
 10 11  1  0  0  0  0
 10 12  2  0  0  0  0
 10 13  1  0  0  0  0
 11 22  1  0  0  0  0
 11 23  1  0  0  0  0
 12 15  1  0  0  0  0
 12 24  1  0  0  0  0
 13 16  2  0  0  0  0
 13 25  1  0  0  0  0
 14 15  2  0  0  0  0
 14 16  1  0  0  0  0
 15 27  1  0  0  0  0
 16 28  1  0  0  0  0
 19 20  2  0  0  0  0
 20 30  1  0  0  0  0
 21 31  1  0  0  0  0
 21 32  1  0  0  0  0
 21 33  1  0  0  0  0
M  CHG  2   4  -1   9   1
M  END
> <PUBCHEM_COMPOUND_CID>
448014

> <PUBCHEM_CONFORMER_RMSD>
0.8

> <PUBCHEM_CONFORMER_DIVERSEORDER>
1
21
13
25
5
23
30
27
26
12
8
40
19
31
41
32
33
16
15
3
28
42
37
11
9
7
29
38
14
17
36
24
10
6
18
22
35
39
20
34
2
4

> <PUBCHEM_MMFF94_PARTIAL_CHARGES>
28
1 -0.08
10 -0.14
11 0.44
12 -0.15
13 -0.15
14 0.08
15 -0.15
16 -0.15
17 0.69
18 0.44
19 0.12
2 -0.36
20 0.08
21 0.28
24 0.15
25 0.15
26 0.37
27 0.15
28 0.15
29 0.37
3 -0.57
30 0.15
4 -0.52
5 -0.52
6 -0.73
7 -0.49
8 -0.57
9 0.96

> <PUBCHEM_EFFECTIVE_ROTOR_COUNT>
7

> <PUBCHEM_PHARMACOPHORE_FEATURES>
9
1 2 acceptor
1 3 acceptor
1 4 acceptor
1 4 anion
1 5 acceptor
1 6 donor
1 7 donor
5 1 8 18 19 20 rings
6 10 12 13 14 15 16 rings

> <PUBCHEM_HEAVY_ATOM_COUNT>
21

> <PUBCHEM_ATOM_DEF_STEREO_COUNT>
0

> <PUBCHEM_ATOM_UDEF_STEREO_COUNT>
0

> <PUBCHEM_BOND_DEF_STEREO_COUNT>
0

> <PUBCHEM_BOND_UDEF_STEREO_COUNT>
0

> <PUBCHEM_ISOTOPIC_ATOM_COUNT>
0

> <PUBCHEM_COMPONENT_COUNT>
1

> <PUBCHEM_CACTVS_TAUTO_COUNT>
5

> <PUBCHEM_CONFORMER_ID>
0006D60E00000001

> <PUBCHEM_MMFF94_ENERGY>
49.3543

> <PUBCHEM_FEATURE_SELFOVERLAP>
45.804

> <PUBCHEM_SHAPE_FINGERPRINT>
10 15 17894915143801515129
10554248 39 16771540652613387141
10670039 82 16701752570359337664
10753850 27 8862950463597618036
11724838 91 18187927330208252263
11858739 19 9151168736536809707
12555020 224 9655571907819348853
12596602 18 18187646924620038880
12616971 3 18270669879471417167
12633257 1 15647329810268244646
12670543 26 12031789141620410659
12760667 363 8790893994498243287
12954195 1 11383848034715703955
13533116 47 17459186287737780026
13685833 64 7997967977055536398
13955234 65 18264489481762729298
1420 369 11242239741661360216
14251740 57 13335001765320407952
14251764 75 18045788038196614612
14341114 176 17458062638577948342
14366163 111 16630240350968228258
14528608 73 16271922697231116411
14840074 17 17775288253204301065
15183329 4 13686305659836702131
15188451 53 14056717967728818307
15342168 16 18413103983409665550
15348495 7 17530970202106090801
15519825 34 16081938199110986193
155225 6 18190748729081346044
15575132 122 17346042160953203777
16760501 71 18261678167952985389
17810953 82 18335140921198888772
17857418 61 11963395141436864169
17870717 6 13110962029154507909
1813 80 12252186238396708286
18222031 100 8070024467366367310
193927 3 8142090905016010910
19784866 240 8502378844782274438
1979834 28 18114188505624228846
20567600 234 18114186354119594991
20567600 247 8142084243247779001
21150785 3 17417802942923161341
21315764 119 13470695849225263241
21637258 2 11458419154634949854
221357 26 12031785851253748275
2215653 11 11312049933805493939
22849339 104 14836109005750262149
23559900 14 17677628474747075646
270888 7 18269834375889803240
2767999 5 18059850662401367801
2838139 119 17847056710191373512
2871803 45 12175625079412375526
2916195 48 18260266318240569073
3014063 24 11674872316498624408
312425 54 16732982024518271465
3472631 163 18059856207504885940
351380 3 11314025764521529760
4340502 62 17675925386979957402
465052 167 8070022289785936224
5104073 3 18040718077820478643
531348 171 8286203830308675499
543368 44 17918270965894064913
559249 180 11169901789412182015
5718773 13 9367085337095556844
59682541 52 11455893508123456433
7970288 3 8286210443904884904
960060 61 11743832582186443938

> <PUBCHEM_SHAPE_MULTIPOLES>
392.62
17.58
2.09
1.28
12.43
0.53
-0.06
12.91
-4.75
-3.28
0.1
0.41
-0.05
-0.02

> <PUBCHEM_SHAPE_SELFOVERLAP>
816.643

> <PUBCHEM_SHAPE_VOLUME>
225.1

> <PUBCHEM_COORDINATE_TYPE>
2
5
10

$$$$
