44412343
  -OEChem-10052120443D

 41 43  0     0  0  0  0  0  0999 V2000
    0.0418    4.6146   -0.8205 O   0  0  0  0  0  0  0  0  0  0  0  0
    0.4406   -2.9326   -0.5786 O   0  0  0  0  0  0  0  0  0  0  0  0
    5.8301    1.4980    0.0126 O   0  5  0  0  0  0  0  0  0  0  0  0
    3.7958    2.2351   -0.3581 O   0  0  0  0  0  0  0  0  0  0  0  0
   -2.1393    0.4251    0.4359 N   0  0  0  0  0  0  0  0  0  0  0  0
   -2.2512   -1.6678   -0.3036 N   0  0  0  0  0  0  0  0  0  0  0  0
   -0.0786   -0.7530    0.1515 N   0  0  0  0  0  0  0  0  0  0  0  0
    4.5981    1.3003   -0.1201 N   0  3  0  0  0  0  0  0  0  0  0  0
   -1.5716    1.6692    0.9070 C   0  0  0  0  0  0  0  0  0  0  0  0
   -3.4753    0.1691    0.2629 C   0  0  0  0  0  0  0  0  0  0  0  0
   -1.4494   -0.7017    0.0845 C   0  0  0  0  0  0  0  0  0  0  0  0
   -0.9967    2.5453   -0.2079 C   0  0  0  0  0  0  0  0  0  0  0  0
   -3.5191   -1.1433   -0.1992 C   0  0  0  0  0  0  0  0  0  0  0  0
   -4.6143    0.9492    0.4649 C   0  0  0  0  0  0  0  0  0  0  0  0
   -0.4866    3.8943    0.2857 C   0  0  0  0  0  0  0  0  0  0  0  0
   -4.7649   -1.7287   -0.4816 C   0  0  0  0  0  0  0  0  0  0  0  0
   -5.8458    0.3508    0.1786 C   0  0  0  0  0  0  0  0  0  0  0  0
   -5.9221   -0.9642   -0.2863 C   0  0  0  0  0  0  0  0  0  0  0  0
    0.7830   -1.8278   -0.1709 C   0  0  0  0  0  0  0  0  0  0  0  0
    2.2386   -1.5666   -0.0192 C   0  0  0  0  0  0  0  0  0  0  0  0
    2.7307   -0.2671   -0.1405 C   0  0  0  0  0  0  0  0  0  0  0  0
    3.1120   -2.6215    0.2452 C   0  0  0  0  0  0  0  0  0  0  0  0
    4.0965   -0.0226    0.0027 C   0  0  0  0  0  0  0  0  0  0  0  0
    4.4777   -2.3768    0.3883 C   0  0  0  0  0  0  0  0  0  0  0  0
    4.9701   -1.0773    0.2668 C   0  0  0  0  0  0  0  0  0  0  0  0
   -0.8041    1.4306    1.6525 H   0  0  0  0  0  0  0  0  0  0  0  0
   -2.3506    2.2178    1.4474 H   0  0  0  0  0  0  0  0  0  0  0  0
   -1.7606    2.7145   -0.9784 H   0  0  0  0  0  0  0  0  0  0  0  0
   -0.1838    2.0221   -0.7266 H   0  0  0  0  0  0  0  0  0  0  0  0
   -4.5634    1.9713    0.8217 H   0  0  0  0  0  0  0  0  0  0  0  0
    0.3075    3.7611    1.0270 H   0  0  0  0  0  0  0  0  0  0  0  0
   -1.2980    4.4791    0.7300 H   0  0  0  0  0  0  0  0  0  0  0  0
    0.3550    0.0882    0.5160 H   0  0  0  0  0  0  0  0  0  0  0  0
   -4.8347   -2.7496   -0.8433 H   0  0  0  0  0  0  0  0  0  0  0  0
   -6.7606    0.9210    0.3201 H   0  0  0  0  0  0  0  0  0  0  0  0
   -6.8939   -1.4019   -0.5003 H   0  0  0  0  0  0  0  0  0  0  0  0
    2.0624    0.5530   -0.3858 H   0  0  0  0  0  0  0  0  0  0  0  0
    2.7479   -3.6403    0.3487 H   0  0  0  0  0  0  0  0  0  0  0  0
    0.3602    5.4675   -0.4788 H   0  0  0  0  0  0  0  0  0  0  0  0
    5.1576   -3.1982    0.5954 H   0  0  0  0  0  0  0  0  0  0  0  0
    6.0398   -0.9246    0.3847 H   0  0  0  0  0  0  0  0  0  0  0  0
  1 15  1  0  0  0  0
  1 39  1  0  0  0  0
  2 19  2  0  0  0  0
  3  8  1  0  0  0  0
  4  8  2  0  0  0  0
  5  9  1  0  0  0  0
  5 10  1  0  0  0  0
  5 11  1  0  0  0  0
  6 11  2  0  0  0  0
  6 13  1  0  0  0  0
  7 11  1  0  0  0  0
  7 19  1  0  0  0  0
  7 33  1  0  0  0  0
  8 23  1  0  0  0  0
  9 12  1  0  0  0  0
  9 26  1  0  0  0  0
  9 27  1  0  0  0  0
 10 13  1  0  0  0  0
 10 14  2  0  0  0  0
 12 15  1  0  0  0  0
 12 28  1  0  0  0  0
 12 29  1  0  0  0  0
 13 16  2  0  0  0  0
 14 17  1  0  0  0  0
 14 30  1  0  0  0  0
 15 31  1  0  0  0  0
 15 32  1  0  0  0  0
 16 18  1  0  0  0  0
 16 34  1  0  0  0  0
 17 18  2  0  0  0  0
 17 35  1  0  0  0  0
 18 36  1  0  0  0  0
 19 20  1  0  0  0  0
 20 21  2  0  0  0  0
 20 22  1  0  0  0  0
 21 23  1  0  0  0  0
 21 37  1  0  0  0  0
 22 24  2  0  0  0  0
 22 38  1  0  0  0  0
 23 25  2  0  0  0  0
 24 25  1  0  0  0  0
 24 40  1  0  0  0  0
 25 41  1  0  0  0  0
M  CHG  2   3  -1   8   1
M  END
> <PUBCHEM_COMPOUND_CID>
44412343

> <PUBCHEM_CONFORMER_RMSD>
0.8

> <PUBCHEM_CONFORMER_DIVERSEORDER>
1
33
37
14
38
21
11
35
3
20
7
24
34
30
22
27
28
18
8
26
32
19
15
31
25
16
36
4
23
2
17
29
6
10
13
12
5
9

> <PUBCHEM_MMFF94_PARTIAL_CHARGES>
34
1 -0.68
10 -0.15
11 0.25
13 0.23
14 -0.15
15 0.28
16 -0.15
17 -0.15
18 -0.15
19 0.54
2 -0.57
20 0.09
21 -0.15
22 -0.15
23 0.13
24 -0.15
25 -0.15
3 -0.52
30 0.15
33 0.37
34 0.15
35 0.15
36 0.15
37 0.15
38 0.15
39 0.4
4 -0.52
40 0.15
41 0.15
5 0.05
6 -0.57
7 -0.49
8 0.91
9 0.26

> <PUBCHEM_EFFECTIVE_ROTOR_COUNT>
7

> <PUBCHEM_PHARMACOPHORE_FEATURES>
10
1 1 acceptor
1 1 donor
1 2 acceptor
1 3 acceptor
1 3 anion
1 4 acceptor
1 7 donor
5 5 6 10 11 13 rings
6 10 13 14 16 17 18 rings
6 20 21 22 23 24 25 rings

> <PUBCHEM_HEAVY_ATOM_COUNT>
25

> <PUBCHEM_ATOM_DEF_STEREO_COUNT>
0

> <PUBCHEM_ATOM_UDEF_STEREO_COUNT>
0

> <PUBCHEM_BOND_DEF_STEREO_COUNT>
0

> <PUBCHEM_BOND_UDEF_STEREO_COUNT>
0

> <PUBCHEM_ISOTOPIC_ATOM_COUNT>
0

> <PUBCHEM_COMPONENT_COUNT>
1

> <PUBCHEM_CACTVS_TAUTO_COUNT>
3

> <PUBCHEM_CONFORMER_ID>
02A5ADB700000001

> <PUBCHEM_MMFF94_ENERGY>
61.8595

> <PUBCHEM_FEATURE_SELFOVERLAP>
50.935

> <PUBCHEM_SHAPE_FINGERPRINT>
10595046 47 18413386540570688251
10670039 82 18337969896113652580
10906281 52 18200610137454263915
1100329 8 18122907800293739438
11045515 52 18261108548289874013
11227688 84 17118031272335890535
12107183 9 17546446674381461450
12107698 1 18261388880873790842
12166972 35 17967255290741961454
12236239 1 18412261731669869935
12403259 226 18269269071972121800
12403260 363 18337389314934579738
12838862 33 18267568269397935472
13004483 165 18337945701861286037
13533116 47 17458901527306429258
1361 2 18265894846690914536
138480 1 14519463460427432417
14394314 77 18412832399484863281
14528608 73 18341896311390587814
14784336 7 17771906297361236777
14790565 3 18342744009507396273
14840074 17 18060136557205323101
15196674 1 18412545401036985867
15439362 3 18120930866178115437
15927050 60 17549544458213743717
15961568 22 18411423908225557764
167882 2 18119812662651999349
17492 89 18195525892060028154
17844677 252 18340211778035805219
17980427 23 18131638868429178861
18681886 176 18272928294247089578
19611394 137 17899147275789785754
20642791 178 18264501740084175261
20715895 44 17977097964611225645
21033648 29 16733255785881911471
21652331 79 18411419492750997362
22113638 7 18267302230237904644
221357 26 18342745079313079054
23352939 185 18202003231112369401
23402539 116 18342170030162919999
23559900 14 17985546641570465135
245318 6 17752502103005398956
3004659 81 18411138009406268578
34797466 226 17346607408033282319
350125 39 18340205190130622338
4073 2 18041284356242114178
46194498 28 17916877811869028926
474 4 18114184193978080190
5104073 3 18408890615965415547
5283173 99 18042958784197835789
67856867 119 18411414003841276762

> <PUBCHEM_SHAPE_MULTIPOLES>
471.09
13.07
4.12
0.72
0.54
4.73
-0.02
-3.13
-0.23
-1.72
0.63
0.15
0.11
-0.93

> <PUBCHEM_SHAPE_SELFOVERLAP>
1019.976

> <PUBCHEM_SHAPE_VOLUME>
257.9

> <PUBCHEM_COORDINATE_TYPE>
2
5
10

$$$$
