11293798
  -OEChem-10062121593D

 53 55  0     0  0  0  0  0  0999 V2000
    4.3860   -3.0912    0.1887 Cl  0  0  0  0  0  0  0  0  0  0  0  0
    0.3742    1.0431   -1.1079 O   0  0  0  0  0  0  0  0  0  0  0  0
   -3.5322    1.7478    0.7442 O   0  0  0  0  0  0  0  0  0  0  0  0
    4.9860   -0.2291   -0.4871 O   0  0  0  0  0  0  0  0  0  0  0  0
    8.6803    1.3289    2.1600 O   0  0  0  0  0  0  0  0  0  0  0  0
   -0.4554   -3.7864   -0.7525 O   0  0  0  0  0  0  0  0  0  0  0  0
   -0.4682   -1.4730   -0.5192 N   0  0  0  0  0  0  0  0  0  0  0  0
   -2.4173   -2.7836   -0.2619 N   0  0  0  0  0  0  0  0  0  0  0  0
   -2.9279   -0.4633    0.2083 N   0  0  0  0  0  0  0  0  0  0  0  0
   -5.5598   -1.2327    0.7732 N   0  0  0  0  0  0  0  0  0  0  0  0
   -7.0690    1.6784    1.5275 N   0  0  0  0  0  0  0  0  0  0  0  0
   -1.0149    3.9242   -1.0301 C   0  0  0  0  0  0  0  0  0  0  0  0
   -0.3800    3.1006   -2.1570 C   0  0  0  0  0  0  0  0  0  0  0  0
   -1.6886    3.1292    0.0859 C   0  0  0  0  0  0  0  0  0  0  0  0
    0.8180    2.2616   -1.7120 C   0  0  0  0  0  0  0  0  0  0  0  0
   -2.8660    2.2920   -0.4007 C   0  0  0  0  0  0  0  0  0  0  0  0
    1.3534    0.1217   -0.8080 C   0  0  0  0  0  0  0  0  0  0  0  0
    0.9252   -1.1904   -0.5149 C   0  0  0  0  0  0  0  0  0  0  0  0
    2.7243    0.4220   -0.7844 C   0  0  0  0  0  0  0  0  0  0  0  0
    3.6640   -0.5619   -0.4803 C   0  0  0  0  0  0  0  0  0  0  0  0
    1.8853   -2.1645   -0.1990 C   0  0  0  0  0  0  0  0  0  0  0  0
    3.2451   -1.8523   -0.1868 C   0  0  0  0  0  0  0  0  0  0  0  0
    5.4013    0.7943    0.4145 C   0  0  0  0  0  0  0  0  0  0  0  0
    6.8351    0.5436    0.8548 C   0  0  0  0  0  0  0  0  0  0  0  0
   -3.8769    0.4277    0.5720 C   0  0  0  0  0  0  0  0  0  0  0  0
   -1.0547   -2.7310   -0.5252 C   0  0  0  0  0  0  0  0  0  0  0  0
    7.3357    1.6195    1.8042 C   0  0  0  0  0  0  0  0  0  0  0  0
   -3.3091   -1.7519    0.1031 C   0  0  0  0  0  0  0  0  0  0  0  0
   -5.1635    0.0476    0.8763 C   0  0  0  0  0  0  0  0  0  0  0  0
   -4.6180   -2.1163    0.3794 C   0  0  0  0  0  0  0  0  0  0  0  0
   -6.2126    0.9453    1.2348 C   0  0  0  0  0  0  0  0  0  0  0  0
   -0.2468    4.5684   -0.5843 H   0  0  0  0  0  0  0  0  0  0  0  0
   -1.7564    4.5997   -1.4753 H   0  0  0  0  0  0  0  0  0  0  0  0
   -1.1324    2.4669   -2.6380 H   0  0  0  0  0  0  0  0  0  0  0  0
   -0.0294    3.8122   -2.9152 H   0  0  0  0  0  0  0  0  0  0  0  0
   -0.9657    2.4892    0.6042 H   0  0  0  0  0  0  0  0  0  0  0  0
   -2.0469    3.8317    0.8498 H   0  0  0  0  0  0  0  0  0  0  0  0
    1.4115    2.0253   -2.6043 H   0  0  0  0  0  0  0  0  0  0  0  0
    1.4256    2.8408   -1.0069 H   0  0  0  0  0  0  0  0  0  0  0  0
   -3.5885    2.9289   -0.9241 H   0  0  0  0  0  0  0  0  0  0  0  0
   -2.5280    1.5274   -1.1090 H   0  0  0  0  0  0  0  0  0  0  0  0
    3.0839    1.4209   -1.0122 H   0  0  0  0  0  0  0  0  0  0  0  0
    1.5950   -3.1740    0.0739 H   0  0  0  0  0  0  0  0  0  0  0  0
    5.3313    1.7602   -0.0990 H   0  0  0  0  0  0  0  0  0  0  0  0
    4.7498    0.8221    1.2979 H   0  0  0  0  0  0  0  0  0  0  0  0
   -1.0773   -0.6655   -0.6152 H   0  0  0  0  0  0  0  0  0  0  0  0
    7.4909    0.4816   -0.0231 H   0  0  0  0  0  0  0  0  0  0  0  0
    6.9143   -0.4431    1.3287 H   0  0  0  0  0  0  0  0  0  0  0  0
    7.3075    2.6048    1.3282 H   0  0  0  0  0  0  0  0  0  0  0  0
    6.7319    1.6471    2.7169 H   0  0  0  0  0  0  0  0  0  0  0  0
   -2.8240   -3.7157   -0.2976 H   0  0  0  0  0  0  0  0  0  0  0  0
   -4.9606   -3.1433    0.3060 H   0  0  0  0  0  0  0  0  0  0  0  0
    8.9731    2.0310    2.7657 H   0  0  0  0  0  0  0  0  0  0  0  0
  1 22  1  0  0  0  0
  2 15  1  0  0  0  0
  2 17  1  0  0  0  0
  3 16  1  0  0  0  0
  3 25  1  0  0  0  0
  4 20  1  0  0  0  0
  4 23  1  0  0  0  0
  5 27  1  0  0  0  0
  5 53  1  0  0  0  0
  6 26  2  0  0  0  0
  7 18  1  0  0  0  0
  7 26  1  0  0  0  0
  7 46  1  0  0  0  0
  8 26  1  0  0  0  0
  8 28  1  0  0  0  0
  8 51  1  0  0  0  0
  9 25  2  0  0  0  0
  9 28  1  0  0  0  0
 10 29  2  0  0  0  0
 10 30  1  0  0  0  0
 11 31  3  0  0  0  0
 12 13  1  0  0  0  0
 12 14  1  0  0  0  0
 12 32  1  0  0  0  0
 12 33  1  0  0  0  0
 13 15  1  0  0  0  0
 13 34  1  0  0  0  0
 13 35  1  0  0  0  0
 14 16  1  0  0  0  0
 14 36  1  0  0  0  0
 14 37  1  0  0  0  0
 15 38  1  0  0  0  0
 15 39  1  0  0  0  0
 16 40  1  0  0  0  0
 16 41  1  0  0  0  0
 17 18  1  0  0  0  0
 17 19  2  0  0  0  0
 18 21  2  0  0  0  0
 19 20  1  0  0  0  0
 19 42  1  0  0  0  0
 20 22  2  0  0  0  0
 21 22  1  0  0  0  0
 21 43  1  0  0  0  0
 23 24  1  0  0  0  0
 23 44  1  0  0  0  0
 23 45  1  0  0  0  0
 24 27  1  0  0  0  0
 24 47  1  0  0  0  0
 24 48  1  0  0  0  0
 25 29  1  0  0  0  0
 27 49  1  0  0  0  0
 27 50  1  0  0  0  0
 28 30  2  0  0  0  0
 29 31  1  0  0  0  0
 30 52  1  0  0  0  0
M  END
> <PUBCHEM_COMPOUND_CID>
11293798

> <PUBCHEM_CONFORMER_RMSD>
0.8

> <PUBCHEM_CONFORMER_DIVERSEORDER>
1
2
55
31
53
68
46
17
41
61
38
62
20
9
30
16
7
63
18
36
71
13
34
21
26
11
40
43
59
35
72
67
5
65
47
37
4
52
64
33
12
27
60
45
22
29
50
56
73
10
6
58
44
28
48
69
15
66
23
54
25
24
70
57
51
49
3
14
8
19
42
39
32

> <PUBCHEM_MMFF94_PARTIAL_CHARGES>
33
1 -0.18
10 -0.62
11 -0.56
15 0.28
16 0.28
17 0.08
18 0.12
19 -0.15
2 -0.36
20 0.08
21 -0.15
22 0.18
23 0.28
25 0.39
26 0.69
27 0.28
28 0.43
29 0.38
3 -0.36
30 0.16
31 0.48
4 -0.36
42 0.15
43 0.15
46 0.37
5 -0.68
51 0.37
52 0.15
53 0.4
6 -0.57
7 -0.55
8 -0.55
9 -0.62

> <PUBCHEM_EFFECTIVE_ROTOR_COUNT>
5.8

> <PUBCHEM_PHARMACOPHORE_FEATURES>
11
1 10 acceptor
1 11 acceptor
1 2 acceptor
1 4 acceptor
1 5 acceptor
1 5 donor
1 6 acceptor
1 7 donor
1 8 donor
6 17 18 19 20 21 22 rings
6 9 10 25 28 29 30 rings

> <PUBCHEM_HEAVY_ATOM_COUNT>
31

> <PUBCHEM_ATOM_DEF_STEREO_COUNT>
0

> <PUBCHEM_ATOM_UDEF_STEREO_COUNT>
0

> <PUBCHEM_BOND_DEF_STEREO_COUNT>
0

> <PUBCHEM_BOND_UDEF_STEREO_COUNT>
0

> <PUBCHEM_ISOTOPIC_ATOM_COUNT>
0

> <PUBCHEM_COMPONENT_COUNT>
1

> <PUBCHEM_CACTVS_TAUTO_COUNT>
5

> <PUBCHEM_CONFORMER_ID>
00AC546600000001

> <PUBCHEM_MMFF94_ENERGY>
97.3982

> <PUBCHEM_FEATURE_SELFOVERLAP>
55.863

> <PUBCHEM_SHAPE_FINGERPRINT>
10906281 52 18042135422135515318
1100329 8 18263937707629755327
11595378 159 18041548162139281848
12838862 33 18409441467586709501
13140716 1 18119532291386412270
13540713 4 18191293885416958374
14028597 1 17240472607677684368
14117953 113 18193008036924171437
14394314 77 18341619192138729425
15082195 135 9943220685739619554
15629462 23 13624069978027693814
15950262 2 15984278305005914369
16110190 28 18336835276753447973
18336668 15 18114185280473048365
20642791 178 18191328112000861597
21033648 29 18202565102670679931
21814621 53 14635409646668801100
22113638 7 18338527425644175367
23576562 1 12535049989003978394
24771293 8 18342739654009702972
25019877 29 17632303431532433279
3680242 22 18190765088884997969
392239 28 18201442501377887304
474144 1 17751950087885518189
5104073 3 18263918840107358514
552612 73 18343576327515655538
57307002 19 18336824191886397301
653340 110 18265336109894539188

> <PUBCHEM_SHAPE_MULTIPOLES>
585.58
17.04
4.48
1.48
16.6
0.35
0.17
4.7
14.82
-1.47
-1.55
1.1
1.24
1.12

> <PUBCHEM_SHAPE_SELFOVERLAP>
1221.098

> <PUBCHEM_SHAPE_VOLUME>
328.4

> <PUBCHEM_COORDINATE_TYPE>
2
5
10

$$$$
