24905179
  -OEChem-10052115143D

 40 42  0     0  0  0  0  0  0999 V2000
    1.3616    0.3394   -1.9407 O   0  0  0  0  0  0  0  0  0  0  0  0
    5.0226    0.1908    0.8769 O   0  0  0  0  0  0  0  0  0  0  0  0
   -2.3934    1.0074    0.1190 N   0  0  0  0  0  0  0  0  0  0  0  0
   -1.1085    1.3802    0.2671 N   0  0  0  0  0  0  0  0  0  0  0  0
   -3.7215   -1.0026   -0.1227 N   0  0  0  0  0  0  0  0  0  0  0  0
   -2.3344   -3.0091   -0.0942 N   0  0  0  0  0  0  0  0  0  0  0  0
    0.0390   -2.9331    0.1471 N   0  0  0  0  0  0  0  0  0  0  0  0
    3.1969    0.2659   -0.5447 N   0  0  0  0  0  0  0  0  0  0  0  0
    2.9204    0.1361    1.8457 N   0  0  0  0  0  0  0  0  0  0  0  0
   -3.4260    2.0152    0.0714 C   0  0  0  0  0  0  0  0  0  0  0  0
   -2.5624   -0.3423    0.0285 C   0  0  0  0  0  0  0  0  0  0  0  0
   -1.2965   -0.8931    0.1244 C   0  0  0  0  0  0  0  0  0  0  0  0
   -0.4456    0.2184    0.2696 C   0  0  0  0  0  0  0  0  0  0  0  0
   -3.2468    2.9486   -1.1285 C   0  0  0  0  0  0  0  0  0  0  0  0
   -3.4955    2.8122    1.3764 C   0  0  0  0  0  0  0  0  0  0  0  0
    0.9886    0.2125    0.4116 C   0  0  0  0  0  0  0  0  0  0  0  0
   -1.2033   -2.2793    0.0581 C   0  0  0  0  0  0  0  0  0  0  0  0
    1.8528    0.2714   -0.6626 C   0  0  0  0  0  0  0  0  0  0  0  0
    1.5848    0.1454    1.6544 C   0  0  0  0  0  0  0  0  0  0  0  0
   -3.5065   -2.3349   -0.1740 C   0  0  0  0  0  0  0  0  0  0  0  0
    3.6562    0.1978    0.7193 C   0  0  0  0  0  0  0  0  0  0  0  0
    2.3186    0.3972   -2.9914 C   0  0  0  0  0  0  0  0  0  0  0  0
    5.7988    0.2559   -0.3106 C   0  0  0  0  0  0  0  0  0  0  0  0
   -4.3841    1.4959   -0.0520 H   0  0  0  0  0  0  0  0  0  0  0  0
   -2.3223    3.5320   -1.0538 H   0  0  0  0  0  0  0  0  0  0  0  0
   -4.0832    3.6520   -1.1993 H   0  0  0  0  0  0  0  0  0  0  0  0
   -3.2053    2.3782   -2.0631 H   0  0  0  0  0  0  0  0  0  0  0  0
   -2.5806    3.3904    1.5475 H   0  0  0  0  0  0  0  0  0  0  0  0
   -3.6319    2.1442    2.2341 H   0  0  0  0  0  0  0  0  0  0  0  0
   -4.3371    3.5126    1.3570 H   0  0  0  0  0  0  0  0  0  0  0  0
    0.9983    0.0946    2.5670 H   0  0  0  0  0  0  0  0  0  0  0  0
   -4.3921   -2.9495   -0.2956 H   0  0  0  0  0  0  0  0  0  0  0  0
    0.8986   -2.4164    0.2601 H   0  0  0  0  0  0  0  0  0  0  0  0
    0.0618   -3.9427    0.0942 H   0  0  0  0  0  0  0  0  0  0  0  0
    1.7741    0.4478   -3.9390 H   0  0  0  0  0  0  0  0  0  0  0  0
    2.9396   -0.5048   -3.0083 H   0  0  0  0  0  0  0  0  0  0  0  0
    2.9378    1.2971   -2.9111 H   0  0  0  0  0  0  0  0  0  0  0  0
    6.8547    0.2414   -0.0243 H   0  0  0  0  0  0  0  0  0  0  0  0
    5.6109    1.1882   -0.8539 H   0  0  0  0  0  0  0  0  0  0  0  0
    5.6127   -0.6128   -0.9513 H   0  0  0  0  0  0  0  0  0  0  0  0
  1 18  1  0  0  0  0
  1 22  1  0  0  0  0
  2 21  1  0  0  0  0
  2 23  1  0  0  0  0
  3  4  1  0  0  0  0
  3 10  1  0  0  0  0
  3 11  1  0  0  0  0
  4 13  2  0  0  0  0
  5 11  2  0  0  0  0
  5 20  1  0  0  0  0
  6 17  1  0  0  0  0
  6 20  2  0  0  0  0
  7 17  1  0  0  0  0
  7 33  1  0  0  0  0
  7 34  1  0  0  0  0
  8 18  2  0  0  0  0
  8 21  1  0  0  0  0
  9 19  1  0  0  0  0
  9 21  2  0  0  0  0
 10 14  1  0  0  0  0
 10 15  1  0  0  0  0
 10 24  1  0  0  0  0
 11 12  1  0  0  0  0
 12 13  1  0  0  0  0
 12 17  2  0  0  0  0
 13 16  1  0  0  0  0
 14 25  1  0  0  0  0
 14 26  1  0  0  0  0
 14 27  1  0  0  0  0
 15 28  1  0  0  0  0
 15 29  1  0  0  0  0
 15 30  1  0  0  0  0
 16 18  1  0  0  0  0
 16 19  2  0  0  0  0
 19 31  1  0  0  0  0
 20 32  1  0  0  0  0
 22 35  1  0  0  0  0
 22 36  1  0  0  0  0
 22 37  1  0  0  0  0
 23 38  1  0  0  0  0
 23 39  1  0  0  0  0
 23 40  1  0  0  0  0
M  END
> <PUBCHEM_COMPOUND_CID>
24905179

> <PUBCHEM_CONFORMER_RMSD>
0.6

> <PUBCHEM_CONFORMER_DIVERSEORDER>
1
10
7
9
8
2
12
14
13
11
15
16
5
4
6
3

> <PUBCHEM_MMFF94_PARTIAL_CHARGES>
24
1 -0.36
10 0.26
11 0.11
13 0.23
16 0.05
17 0.41
18 0.39
19 0.16
2 -0.36
20 0.47
21 0.7
22 0.28
23 0.28
3 0.31
31 0.15
32 0.15
33 0.4
34 0.4
4 -0.71
5 -0.57
6 -0.62
7 -0.9
8 -0.62
9 -0.62

> <PUBCHEM_EFFECTIVE_ROTOR_COUNT>
4

> <PUBCHEM_PHARMACOPHORE_FEATURES>
10
1 4 acceptor
1 7 cation
1 7 donor
3 10 14 15 hydrophobe
3 3 5 11 cation
3 5 6 20 cation
3 8 9 21 cation
5 3 4 11 12 13 rings
6 5 6 11 12 17 20 rings
6 8 9 16 18 19 21 rings

> <PUBCHEM_HEAVY_ATOM_COUNT>
23

> <PUBCHEM_ATOM_DEF_STEREO_COUNT>
0

> <PUBCHEM_ATOM_UDEF_STEREO_COUNT>
0

> <PUBCHEM_BOND_DEF_STEREO_COUNT>
0

> <PUBCHEM_BOND_UDEF_STEREO_COUNT>
0

> <PUBCHEM_ISOTOPIC_ATOM_COUNT>
0

> <PUBCHEM_COMPONENT_COUNT>
1

> <PUBCHEM_CACTVS_TAUTO_COUNT>
5

> <PUBCHEM_CONFORMER_ID>
017C05DB00000001

> <PUBCHEM_MMFF94_ENERGY>
64.5846

> <PUBCHEM_FEATURE_SELFOVERLAP>
51.026

> <PUBCHEM_SHAPE_FINGERPRINT>
11582403 64 16695208225242143481
11640471 11 17749683955465350181
11725454 13 17056074564254480633
11796584 16 18271812260043454646
12236239 1 17749384892803050050
12422481 6 17753311099035136066
12500047 106 18340760468918882304
12788726 201 18193294089797812455
13009979 54 17896606278352596934
13140716 1 18123191462094736211
13583140 156 17988912388955306810
13965767 371 17825669949983616661
14022347 108 17976278029600439603
14294032 229 18263921056590850709
15042514 8 18266179624808835483
16752209 62 18336818775705322515
16945 1 18411420652724665067
18915476 22 16415490306740693644
19049666 15 17703241619453076179
20510252 161 18271802467005862545
20600515 1 18127136500950688635
20691752 17 17386566847933047970
21033648 29 17203313529943264608
22112679 90 18040723588115741597
22182313 1 17560817519052433708
23402539 116 18342166821600472655
23493267 7 18202559553857276376
23526113 38 17274544209084041024
23557571 272 18131359613038099216
23559900 14 18270392923290438024
23598291 2 17603874428882461220
2748010 2 18194690263718082387
59755656 520 18058455313880125577
7615 1 17895482525966117980
77492 1 17749106716303109442
81228 2 18340214102182376547
9862522 239 17751069224484715877

> <PUBCHEM_SHAPE_MULTIPOLES>
426.72
8.75
2.95
1.66
8.8
0.89
0.96
-2.84
-0.56
-5.42
0.02
1.59
-0.7
-0.37

> <PUBCHEM_SHAPE_SELFOVERLAP>
925.526

> <PUBCHEM_SHAPE_VOLUME>
232

> <PUBCHEM_COORDINATE_TYPE>
2
5
10

$$$$
