49830310
  -OEChem-10052120443D

 43 46  0     0  0  0  0  0  0999 V2000
    1.5971   -4.6386   -0.6995 F   0  0  0  0  0  0  0  0  0  0  0  0
   -7.3921    1.0181   -0.1891 O   0  0  0  0  0  0  0  0  0  0  0  0
    4.9791    0.5066    1.6448 N   0  0  0  0  0  0  0  0  0  0  0  0
   -1.4751   -1.1380   -0.1996 N   0  0  0  0  0  0  0  0  0  0  0  0
    5.4702    2.4807    0.3543 N   0  0  0  0  0  0  0  0  0  0  0  0
    0.0714   -2.9314   -0.4582 N   0  0  0  0  0  0  0  0  0  0  0  0
    3.2399   -0.3048    0.5190 C   0  0  0  0  0  0  0  0  0  0  0  0
    3.6666    0.8887   -0.1212 C   0  0  0  0  0  0  0  0  0  0  0  0
    2.1650   -1.1953    0.1875 C   0  0  0  0  0  0  0  0  0  0  0  0
    4.7522    1.3696    0.6051 C   0  0  0  0  0  0  0  0  0  0  0  0
    4.0662   -0.5149    1.6019 C   0  0  0  0  0  0  0  0  0  0  0  0
    0.8557   -0.7281    0.1544 C   0  0  0  0  0  0  0  0  0  0  0  0
   -0.1461   -1.6283   -0.1711 C   0  0  0  0  0  0  0  0  0  0  0  0
   -1.8013    0.2205    0.0896 C   0  0  0  0  0  0  0  0  0  0  0  0
    3.2601    1.6298   -1.2427 C   0  0  0  0  0  0  0  0  0  0  0  0
    2.4286   -2.5295   -0.1021 C   0  0  0  0  0  0  0  0  0  0  0  0
   -3.2879    0.4330    0.0151 C   0  0  0  0  0  0  0  0  0  0  0  0
    1.3565   -3.3491   -0.4161 C   0  0  0  0  0  0  0  0  0  0  0  0
    3.9695    2.7899   -1.5482 C   0  0  0  0  0  0  0  0  0  0  0  0
   -3.9190    0.5214   -1.2257 C   0  0  0  0  0  0  0  0  0  0  0  0
   -4.0362    0.5414    1.1873 C   0  0  0  0  0  0  0  0  0  0  0  0
    5.0349    3.1544   -0.7359 C   0  0  0  0  0  0  0  0  0  0  0  0
   -5.2981    0.7183   -1.2945 C   0  0  0  0  0  0  0  0  0  0  0  0
   -5.4153    0.7384    1.1188 C   0  0  0  0  0  0  0  0  0  0  0  0
   -6.0463    0.8269   -0.1221 C   0  0  0  0  0  0  0  0  0  0  0  0
   -8.0957    1.1204    1.0481 C   0  0  0  0  0  0  0  0  0  0  0  0
    4.0908   -1.2951    2.3510 H   0  0  0  0  0  0  0  0  0  0  0  0
    0.6666    0.3147    0.3846 H   0  0  0  0  0  0  0  0  0  0  0  0
    5.7082    0.6087    2.3370 H   0  0  0  0  0  0  0  0  0  0  0  0
   -1.4557    0.5031    1.0923 H   0  0  0  0  0  0  0  0  0  0  0  0
   -1.3237    0.9051   -0.6236 H   0  0  0  0  0  0  0  0  0  0  0  0
    2.4231    1.3177   -1.8590 H   0  0  0  0  0  0  0  0  0  0  0  0
   -2.1953   -1.8105   -0.4385 H   0  0  0  0  0  0  0  0  0  0  0  0
    3.4357   -2.9342   -0.0923 H   0  0  0  0  0  0  0  0  0  0  0  0
    3.6935    3.3957   -2.4046 H   0  0  0  0  0  0  0  0  0  0  0  0
   -3.3464    0.4383   -2.1458 H   0  0  0  0  0  0  0  0  0  0  0  0
   -3.5577    0.4719    2.1607 H   0  0  0  0  0  0  0  0  0  0  0  0
    5.5990    4.0562   -0.9594 H   0  0  0  0  0  0  0  0  0  0  0  0
   -5.7842    0.7862   -2.2639 H   0  0  0  0  0  0  0  0  0  0  0  0
   -5.9355    0.8133    2.0676 H   0  0  0  0  0  0  0  0  0  0  0  0
   -9.1531    1.2709    0.8070 H   0  0  0  0  0  0  0  0  0  0  0  0
   -7.7718    1.9938    1.6242 H   0  0  0  0  0  0  0  0  0  0  0  0
   -8.0287    0.1929    1.6269 H   0  0  0  0  0  0  0  0  0  0  0  0
  1 18  1  0  0  0  0
  2 25  1  0  0  0  0
  2 26  1  0  0  0  0
  3 10  1  0  0  0  0
  3 11  1  0  0  0  0
  3 29  1  0  0  0  0
  4 13  1  0  0  0  0
  4 14  1  0  0  0  0
  4 33  1  0  0  0  0
  5 10  1  0  0  0  0
  5 22  2  0  0  0  0
  6 13  2  0  0  0  0
  6 18  1  0  0  0  0
  7  8  1  0  0  0  0
  7  9  1  0  0  0  0
  7 11  2  0  0  0  0
  8 10  2  0  0  0  0
  8 15  1  0  0  0  0
  9 12  2  0  0  0  0
  9 16  1  0  0  0  0
 11 27  1  0  0  0  0
 12 13  1  0  0  0  0
 12 28  1  0  0  0  0
 14 17  1  0  0  0  0
 14 30  1  0  0  0  0
 14 31  1  0  0  0  0
 15 19  2  0  0  0  0
 15 32  1  0  0  0  0
 16 18  2  0  0  0  0
 16 34  1  0  0  0  0
 17 20  2  0  0  0  0
 17 21  1  0  0  0  0
 19 22  1  0  0  0  0
 19 35  1  0  0  0  0
 20 23  1  0  0  0  0
 20 36  1  0  0  0  0
 21 24  2  0  0  0  0
 21 37  1  0  0  0  0
 22 38  1  0  0  0  0
 23 25  2  0  0  0  0
 23 39  1  0  0  0  0
 24 25  1  0  0  0  0
 24 40  1  0  0  0  0
 26 41  1  0  0  0  0
 26 42  1  0  0  0  0
 26 43  1  0  0  0  0
M  END
> <PUBCHEM_COMPOUND_CID>
49830310

> <PUBCHEM_CONFORMER_RMSD>
0.8

> <PUBCHEM_CONFORMER_DIVERSEORDER>
1
94
43
56
96
88
73
86
61
59
28
53
50
91
34
38
76
63
7
74
24
95
29
92
60
41
83
82
5
17
98
71
12
54
77
90
89
23
49
81
72
84
27
21
51
20
37
65
66
68
30
31
13
62
3
79
52
85
99
22
44
42
10
87
58
97
6
93
26
57
36
78
45
14
15
70
35
18
48
67
64
80
75
8
33
55
40
32
19
25
4
16
47
69
2
11
46
9
39

> <PUBCHEM_MMFF94_PARTIAL_CHARGES>
37
1 -0.19
10 0.11
11 -0.3
12 -0.15
13 0.41
14 0.51
15 -0.15
16 -0.15
17 -0.14
18 0.5
19 -0.15
2 -0.36
20 -0.15
21 -0.15
22 0.16
23 -0.15
24 -0.15
25 0.08
26 0.28
27 0.15
28 0.15
29 0.27
3 0.03
32 0.15
33 0.4
34 0.15
35 0.15
36 0.15
37 0.15
38 0.15
39 0.15
4 -0.87
40 0.15
5 -0.57
6 -0.62
7 -0.05
9 0.05

> <PUBCHEM_EFFECTIVE_ROTOR_COUNT>
5

> <PUBCHEM_PHARMACOPHORE_FEATURES>
10
1 2 acceptor
1 3 cation
1 3 donor
1 4 donor
1 5 acceptor
3 4 6 13 cation
5 3 7 8 10 11 rings
6 17 20 21 23 24 25 rings
6 5 8 10 15 19 22 rings
6 6 9 12 13 16 18 rings

> <PUBCHEM_HEAVY_ATOM_COUNT>
26

> <PUBCHEM_ATOM_DEF_STEREO_COUNT>
0

> <PUBCHEM_ATOM_UDEF_STEREO_COUNT>
0

> <PUBCHEM_BOND_DEF_STEREO_COUNT>
0

> <PUBCHEM_BOND_UDEF_STEREO_COUNT>
0

> <PUBCHEM_ISOTOPIC_ATOM_COUNT>
0

> <PUBCHEM_COMPONENT_COUNT>
1

> <PUBCHEM_CACTVS_TAUTO_COUNT>
13

> <PUBCHEM_CONFORMER_ID>
02F859A600000001

> <PUBCHEM_MMFF94_ENERGY>
80.6787

> <PUBCHEM_FEATURE_SELFOVERLAP>
50.859

> <PUBCHEM_SHAPE_FINGERPRINT>
10 15 17967535688177941025
10554248 39 17344058564973233165
10673678 19 18411705408586982537
12403259 118 18115581703115916154
12422481 6 17676757738857247196
12788726 201 17836919371597005878
13583140 156 16879045517171003022
13631057 29 18057590161928836487
13911852 28 9078849479805679685
13914758 101 7925918085065172999
13955234 65 18265895765566145339
14251764 75 18117565243541601508
14294032 229 18126855025700483335
14344974 204 9725151168658979316
14347332 77 8862948260627730083
14400156 188 17752203894636520346
14461889 52 18335144211328610187
15183329 4 13326864322633431313
15188451 53 13767924641929776801
15342168 16 18410009957171950798
17810953 82 18335420188383009140
17844677 252 18195532489635352525
17980427 23 17895193376252244623
18222031 100 11169910580492708202
19319366 153 18272926103249097135
19427546 62 18409731750993055811
1979834 28 18259990357400857157
20157964 124 18409730630174610627
20567600 234 18259705610233897453
21033650 10 15984559835643048251
21049683 271 18122352277157347190
21304303 94 12823295702162306644
21315764 119 13686301283882440081
21716022 299 15481005406223884758
221357 26 10952053346855347857
22149856 69 18342472422168075699
23081809 10 17560510691885977077
23559900 14 18263092019642400971
245318 6 17823994522049212212
3472631 163 18200877395593437340
397830 11 18041011661164188187
4073 2 18409452484462738707
439807 62 11527957754981407737
444735 82 18338804408370697121
474 4 18410853252647223722
49967989 163 16198997653982919557
59682541 52 16558763290848986676
6034566 193 18263932218186771501
7970288 3 8646501712503034808
960060 61 11959729386770736848
9849439 229 18271235149070720616

> <PUBCHEM_SHAPE_MULTIPOLES>
502
17.69
3.73
1.31
30.92
3.27
0.12
-15.64
3.55
-6.49
-1.57
-0.21
-0.41
-1

> <PUBCHEM_SHAPE_SELFOVERLAP>
1115.107

> <PUBCHEM_SHAPE_VOLUME>
270.1

> <PUBCHEM_COORDINATE_TYPE>
2
5
10

$$$$
