6540003
  -OEChem-10062121593D

 50 53  0     0  0  0  0  0  0999 V2000
   -6.1741   -1.6728   -0.8766 S   0  0  0  0  0  0  0  0  0  0  0  0
    2.5283    0.1271   -1.0285 O   0  0  0  0  0  0  0  0  0  0  0  0
    1.5758   -0.5140    1.0139 N   0  0  0  0  0  0  0  0  0  0  0  0
   -7.2566    0.7146   -0.4003 N   0  0  0  0  0  0  0  0  0  0  0  0
    3.8665   -0.2684    0.8481 N   0  0  0  0  0  0  0  0  0  0  0  0
   -5.8478    2.5161    0.4052 N   0  0  0  0  0  0  0  0  0  0  0  0
   -3.5233    2.2551    0.7957 N   0  0  0  0  0  0  0  0  0  0  0  0
   -3.9233   -0.6811   -0.1376 C   0  0  0  0  0  0  0  0  0  0  0  0
   -4.8709    0.3838   -0.0182 C   0  0  0  0  0  0  0  0  0  0  0  0
   -2.5116   -0.6381    0.1578 C   0  0  0  0  0  0  0  0  0  0  0  0
   -4.4965   -1.8488   -0.5922 C   0  0  0  0  0  0  0  0  0  0  0  0
   -6.1393   -0.0384   -0.3950 C   0  0  0  0  0  0  0  0  0  0  0  0
   -2.0646   -0.9484    1.4383 C   0  0  0  0  0  0  0  0  0  0  0  0
   -1.6077   -0.2866   -0.8400 C   0  0  0  0  0  0  0  0  0  0  0  0
   -4.7598    1.7166    0.3912 C   0  0  0  0  0  0  0  0  0  0  0  0
    0.2109   -0.5551    0.7277 C   0  0  0  0  0  0  0  0  0  0  0  0
   -3.8708   -3.1678   -0.8506 C   0  0  0  0  0  0  0  0  0  0  0  0
   -0.6999   -0.9068    1.7239 C   0  0  0  0  0  0  0  0  0  0  0  0
   -0.2430   -0.2451   -0.5542 C   0  0  0  0  0  0  0  0  0  0  0  0
    5.1700   -0.0203    0.3569 C   0  0  0  0  0  0  0  0  0  0  0  0
    6.6208    0.5999   -1.4502 C   0  0  0  0  0  0  0  0  0  0  0  0
    7.5384    0.0850    0.7247 C   0  0  0  0  0  0  0  0  0  0  0  0
    6.2532   -0.1591    1.2090 C   0  0  0  0  0  0  0  0  0  0  0  0
    5.3357    0.3558   -0.9657 C   0  0  0  0  0  0  0  0  0  0  0  0
    7.7222    0.4644   -0.6049 C   0  0  0  0  0  0  0  0  0  0  0  0
    2.6501   -0.1847    0.1518 C   0  0  0  0  0  0  0  0  0  0  0  0
   -7.0164    1.9718    0.0130 C   0  0  0  0  0  0  0  0  0  0  0  0
    6.8178    1.0059   -2.8714 C   0  0  0  0  0  0  0  0  0  0  0  0
    8.7159   -0.0607    1.6280 C   0  0  0  0  0  0  0  0  0  0  0  0
   -2.7621   -1.2236    2.2257 H   0  0  0  0  0  0  0  0  0  0  0  0
   -1.9475   -0.0417   -1.8435 H   0  0  0  0  0  0  0  0  0  0  0  0
   -4.5860   -3.9146   -1.2119 H   0  0  0  0  0  0  0  0  0  0  0  0
   -3.0842   -3.0775   -1.6073 H   0  0  0  0  0  0  0  0  0  0  0  0
   -3.4203   -3.5646    0.0654 H   0  0  0  0  0  0  0  0  0  0  0  0
   -0.3602   -1.1507    2.7274 H   0  0  0  0  0  0  0  0  0  0  0  0
    0.3967    0.0362   -1.3784 H   0  0  0  0  0  0  0  0  0  0  0  0
    1.8292   -0.7527    1.9695 H   0  0  0  0  0  0  0  0  0  0  0  0
    6.1082   -0.4570    2.2445 H   0  0  0  0  0  0  0  0  0  0  0  0
    4.5301    0.4817   -1.6735 H   0  0  0  0  0  0  0  0  0  0  0  0
    8.7248    0.6540   -0.9808 H   0  0  0  0  0  0  0  0  0  0  0  0
    3.8132   -0.5406    1.8265 H   0  0  0  0  0  0  0  0  0  0  0  0
   -7.8746    2.6343    0.0333 H   0  0  0  0  0  0  0  0  0  0  0  0
   -3.4967    3.2247    1.0832 H   0  0  0  0  0  0  0  0  0  0  0  0
   -2.6736    1.7151    0.8101 H   0  0  0  0  0  0  0  0  0  0  0  0
    6.1975    0.3967   -3.5377 H   0  0  0  0  0  0  0  0  0  0  0  0
    6.5509    2.0595   -3.0019 H   0  0  0  0  0  0  0  0  0  0  0  0
    7.8575    0.8732   -3.1893 H   0  0  0  0  0  0  0  0  0  0  0  0
    8.4472    0.1582    2.6671 H   0  0  0  0  0  0  0  0  0  0  0  0
    9.1061   -1.0819    1.5747 H   0  0  0  0  0  0  0  0  0  0  0  0
    9.5147    0.6356    1.3510 H   0  0  0  0  0  0  0  0  0  0  0  0
  1 11  1  0  0  0  0
  1 12  1  0  0  0  0
  2 26  2  0  0  0  0
  3 16  1  0  0  0  0
  3 26  1  0  0  0  0
  3 37  1  0  0  0  0
  4 12  2  0  0  0  0
  4 27  1  0  0  0  0
  5 20  1  0  0  0  0
  5 26  1  0  0  0  0
  5 41  1  0  0  0  0
  6 15  1  0  0  0  0
  6 27  2  0  0  0  0
  7 15  1  0  0  0  0
  7 43  1  0  0  0  0
  7 44  1  0  0  0  0
  8  9  1  0  0  0  0
  8 10  1  0  0  0  0
  8 11  2  0  0  0  0
  9 12  1  0  0  0  0
  9 15  2  0  0  0  0
 10 13  2  0  0  0  0
 10 14  1  0  0  0  0
 11 17  1  0  0  0  0
 13 18  1  0  0  0  0
 13 30  1  0  0  0  0
 14 19  2  0  0  0  0
 14 31  1  0  0  0  0
 16 18  2  0  0  0  0
 16 19  1  0  0  0  0
 17 32  1  0  0  0  0
 17 33  1  0  0  0  0
 17 34  1  0  0  0  0
 18 35  1  0  0  0  0
 19 36  1  0  0  0  0
 20 23  2  0  0  0  0
 20 24  1  0  0  0  0
 21 24  2  0  0  0  0
 21 25  1  0  0  0  0
 21 28  1  0  0  0  0
 22 23  1  0  0  0  0
 22 25  2  0  0  0  0
 22 29  1  0  0  0  0
 23 38  1  0  0  0  0
 24 39  1  0  0  0  0
 25 40  1  0  0  0  0
 27 42  1  0  0  0  0
 28 45  1  0  0  0  0
 28 46  1  0  0  0  0
 28 47  1  0  0  0  0
 29 48  1  0  0  0  0
 29 49  1  0  0  0  0
 29 50  1  0  0  0  0
M  END
> <PUBCHEM_COMPOUND_CID>
6540003

> <PUBCHEM_CONFORMER_RMSD>
0.8

> <PUBCHEM_CONFORMER_DIVERSEORDER>
1
8
4
10
7
6
9
5
3
2

> <PUBCHEM_MMFF94_PARTIAL_CHARGES>
40
1 -0.08
10 0.05
11 -0.14
12 0.3
13 -0.15
14 -0.15
15 0.41
16 0.12
17 0.18
18 -0.15
19 -0.15
2 -0.57
20 0.12
21 -0.14
22 -0.14
23 -0.15
24 -0.15
25 -0.15
26 0.69
27 0.47
28 0.14
29 0.14
3 -0.55
30 0.15
31 0.15
35 0.15
36 0.15
37 0.37
38 0.15
39 0.15
4 -0.57
40 0.15
41 0.37
42 0.15
43 0.4
44 0.4
5 -0.55
6 -0.62
7 -0.9
8 -0.05

> <PUBCHEM_EFFECTIVE_ROTOR_COUNT>
5

> <PUBCHEM_PHARMACOPHORE_FEATURES>
11
1 2 acceptor
1 3 donor
1 4 acceptor
1 5 donor
1 7 cation
1 7 donor
3 4 6 27 cation
5 1 8 9 11 12 rings
6 10 13 14 16 18 19 rings
6 20 21 22 23 24 25 rings
6 4 6 9 12 15 27 rings

> <PUBCHEM_HEAVY_ATOM_COUNT>
29

> <PUBCHEM_ATOM_DEF_STEREO_COUNT>
0

> <PUBCHEM_ATOM_UDEF_STEREO_COUNT>
0

> <PUBCHEM_BOND_DEF_STEREO_COUNT>
0

> <PUBCHEM_BOND_UDEF_STEREO_COUNT>
0

> <PUBCHEM_ISOTOPIC_ATOM_COUNT>
0

> <PUBCHEM_COMPONENT_COUNT>
1

> <PUBCHEM_CACTVS_TAUTO_COUNT>
12

> <PUBCHEM_CONFORMER_ID>
0063CAE300000001

> <PUBCHEM_MMFF94_ENERGY>
90.7

> <PUBCHEM_FEATURE_SELFOVERLAP>
55.951

> <PUBCHEM_SHAPE_FINGERPRINT>
10 15 13623533480656268630
10076449 9 17704353295462209611
10299344 5 18113052744873121422
10391435 84 15769483314299547486
10411042 1 17981880059315527863
10554248 39 17603589634540193302
106641 1 16515694342869056953
10906281 52 17822304478388070426
11315181 36 18186518835013240439
11991303 11 16558462092992147772
12082328 90 18413103974429542151
12236239 1 18186516592929587787
13885169 127 18343579642317927714
13914758 101 18411982451426209290
14251764 18 17967252009234011422
14849402 71 17458919235082076789
14856354 85 18340207492133373399
150020 25 17346599660345037080
15183329 4 18412831282956058296
15198563 99 16343431604596741480
15276724 80 17530682113370641100
15419008 47 17346593071559536976
15419008 91 17632279195332447664
15461852 350 18341334469564933678
15510794 2 17418374701659509958
1577012 14 17894354406288813196
15849732 13 17203607103542433396
17093844 174 18131627911255560563
20281389 69 16081085991837100686
21150785 3 15554441895121889912
21756936 100 18040999527871118387
21792961 116 17275107210487684810
22224240 67 15719396131305334761
23081809 10 18113616815913370258
23522609 53 17968676963925753220
23559900 14 17632288008415252779
23576562 1 18120942960810601412
249057 3 18273212028244007813
2838139 119 17095518509167123998
328310 630 17313111881704854558
394071 54 16660365874969620150
4073 2 18333735719062859442
4339292 15 17560224960407591463
437795 51 13551467034918098000
44555599 121 17967256412150983972
445580 37 18341619208969938381
44880568 143 17846785100275046496
5265222 85 18058166305072186071
54039377 194 11815597724182113333
5758199 1 17894347774184269922
58260988 114 16443920483119341795
58902169 19 18186519934398274846
5969126 39 14189578507591042691
59755656 520 17167860881096178491
9962374 69 13110694809792023172

> <PUBCHEM_SHAPE_MULTIPOLES>
569.88
26.61
1.96
1.62
33.25
0
-0.5
7.23
-2.96
-5.68
-0.2
3.42
0.04
-2.53

> <PUBCHEM_SHAPE_SELFOVERLAP>
1243.885

> <PUBCHEM_SHAPE_VOLUME>
312.4

> <PUBCHEM_COORDINATE_TYPE>
2
5
10

$$$$
