44370150
  -OEChem-10052115163D

 65 71  0     1  0  0  0  0  0999 V2000
    8.4872   -0.6854   -2.4173 Br  0  0  0  0  0  0  0  0  0  0  0  0
    1.2910   -4.1172    0.6795 Cl  0  0  0  0  0  0  0  0  0  0  0  0
    1.8513    3.6538    0.5786 Cl  0  0  0  0  0  0  0  0  0  0  0  0
    1.3563    0.0791   -0.1659 O   0  0  0  0  0  0  0  0  0  0  0  0
    4.5645    0.7732    1.5059 O   0  0  0  0  0  0  0  0  0  0  0  0
    0.5009    0.1067    2.5825 O   0  0  0  0  0  0  0  0  0  0  0  0
    2.9805   -0.4298    3.6301 O   0  0  0  0  0  0  0  0  0  0  0  0
    4.7880    0.1845   -1.2523 O   0  0  0  0  0  0  0  0  0  0  0  0
   -5.8559   -1.9840   -0.8035 O   0  0  0  0  0  0  0  0  0  0  0  0
   -5.5230    2.6187   -0.8575 O   0  0  0  0  0  0  0  0  0  0  0  0
    5.5585   -1.6835   -2.3579 O   0  0  0  0  0  0  0  0  0  0  0  0
   -0.4821   -1.4419    0.2508 N   0  0  0  0  0  0  0  0  0  0  0  0
   -0.2809    1.3341    0.2161 N   0  0  0  0  0  0  0  0  0  0  0  0
   -6.0710    0.3441   -0.9081 N   0  0  0  0  0  0  0  0  0  0  0  0
    0.9725   -1.1137    0.5327 C   0  0  2  0  0  0  0  0  0  0  0  0
    1.2644   -0.9730    2.0351 C   0  0  1  0  0  0  0  0  0  0  0  0
    2.7487   -0.6592    2.2420 C   0  0  1  0  0  0  0  0  0  0  0  0
    3.1578    0.5695    1.4248 C   0  0  2  0  0  0  0  0  0  0  0  0
    2.7397    0.4314   -0.0473 C   0  0  1  0  0  0  0  0  0  0  0  0
   -1.5684   -0.6725    0.0137 C   0  0  0  0  0  0  0  0  0  0  0  0
   -2.8707   -1.2238   -0.2305 C   0  0  0  0  0  0  0  0  0  0  0  0
   -1.0387   -2.7100    0.1748 C   0  0  0  0  0  0  0  0  0  0  0  0
   -1.4673    0.7236   -0.0034 C   0  0  0  0  0  0  0  0  0  0  0  0
   -2.4438   -2.6249   -0.1076 C   0  0  0  0  0  0  0  0  0  0  0  0
   -2.6771    1.4506   -0.2630 C   0  0  0  0  0  0  0  0  0  0  0  0
   -4.0299   -0.4948   -0.4807 C   0  0  0  0  0  0  0  0  0  0  0  0
   -3.9297    0.8903   -0.4972 C   0  0  0  0  0  0  0  0  0  0  0  0
    3.6177   -0.5128   -0.8720 C   0  0  0  0  0  0  0  0  0  0  0  0
   -2.0525    2.7782   -0.1738 C   0  0  0  0  0  0  0  0  0  0  0  0
   -0.3918   -3.9444    0.3380 C   0  0  0  0  0  0  0  0  0  0  0  0
   -0.6492    2.6668    0.1080 C   0  0  0  0  0  0  0  0  0  0  0  0
   -3.1558   -3.8439   -0.2161 C   0  0  0  0  0  0  0  0  0  0  0  0
   -5.4121   -0.8545   -0.7456 C   0  0  0  0  0  0  0  0  0  0  0  0
   -5.2463    1.4388   -0.7727 C   0  0  0  0  0  0  0  0  0  0  0  0
   -1.1400   -5.1164    0.2213 C   0  0  0  0  0  0  0  0  0  0  0  0
   -2.5008   -5.0691   -0.0517 C   0  0  0  0  0  0  0  0  0  0  0  0
   -2.5818    4.0840   -0.3130 C   0  0  0  0  0  0  0  0  0  0  0  0
    4.9161    2.1063    1.1659 C   0  0  0  0  0  0  0  0  0  0  0  0
    0.1694    3.7988    0.2408 C   0  0  0  0  0  0  0  0  0  0  0  0
   -1.7567    5.2057   -0.1783 C   0  0  0  0  0  0  0  0  0  0  0  0
   -0.4025    5.0632    0.0943 C   0  0  0  0  0  0  0  0  0  0  0  0
    5.6976   -0.5207   -2.0063 C   0  0  0  0  0  0  0  0  0  0  0  0
    6.8660    0.3739   -2.3132 C   0  0  0  0  0  0  0  0  0  0  0  0
    1.5504   -1.8840    0.0406 H   0  0  0  0  0  0  0  0  0  0  0  0
    0.9869   -1.8711    2.5969 H   0  0  0  0  0  0  0  0  0  0  0  0
    3.3662   -1.5192    1.9587 H   0  0  0  0  0  0  0  0  0  0  0  0
    2.6544    1.4211    1.8941 H   0  0  0  0  0  0  0  0  0  0  0  0
    2.8261    1.4048   -0.5353 H   0  0  0  0  0  0  0  0  0  0  0  0
    3.8804   -1.4147   -0.3084 H   0  0  0  0  0  0  0  0  0  0  0  0
    3.0769   -0.8240   -1.7744 H   0  0  0  0  0  0  0  0  0  0  0  0
    0.5458    1.0321    0.6846 H   0  0  0  0  0  0  0  0  0  0  0  0
   -0.4229   -0.1902    2.6432 H   0  0  0  0  0  0  0  0  0  0  0  0
   -4.2202   -3.8471   -0.4281 H   0  0  0  0  0  0  0  0  0  0  0  0
    2.7107   -1.2320    4.1090 H   0  0  0  0  0  0  0  0  0  0  0  0
   -7.0629    0.4134   -1.1066 H   0  0  0  0  0  0  0  0  0  0  0  0
   -0.6674   -6.0890    0.3426 H   0  0  0  0  0  0  0  0  0  0  0  0
   -3.0659   -5.9934   -0.1388 H   0  0  0  0  0  0  0  0  0  0  0  0
   -3.6352    4.2353   -0.5261 H   0  0  0  0  0  0  0  0  0  0  0  0
    6.0043    2.1911    1.2423 H   0  0  0  0  0  0  0  0  0  0  0  0
    4.4799    2.8116    1.8797 H   0  0  0  0  0  0  0  0  0  0  0  0
    4.6385    2.3723    0.1443 H   0  0  0  0  0  0  0  0  0  0  0  0
   -2.1828    6.1994   -0.2889 H   0  0  0  0  0  0  0  0  0  0  0  0
    0.2095    5.9572    0.1924 H   0  0  0  0  0  0  0  0  0  0  0  0
    7.0316    1.0971   -1.5110 H   0  0  0  0  0  0  0  0  0  0  0  0
    6.7197    0.8779   -3.2700 H   0  0  0  0  0  0  0  0  0  0  0  0
  1 43  1  0  0  0  0
  2 30  1  0  0  0  0
  3 39  1  0  0  0  0
  4 15  1  0  0  0  0
  4 19  1  0  0  0  0
  5 18  1  0  0  0  0
  5 38  1  0  0  0  0
  6 16  1  0  0  0  0
  6 52  1  0  0  0  0
  7 17  1  0  0  0  0
  7 54  1  0  0  0  0
  8 28  1  0  0  0  0
  8 42  1  0  0  0  0
  9 33  2  0  0  0  0
 10 34  2  0  0  0  0
 11 42  2  0  0  0  0
 12 15  1  0  0  0  0
 12 20  1  0  0  0  0
 12 22  1  0  0  0  0
 13 23  1  0  0  0  0
 13 31  1  0  0  0  0
 13 51  1  0  0  0  0
 14 33  1  0  0  0  0
 14 34  1  0  0  0  0
 14 55  1  0  0  0  0
 15 16  1  0  0  0  0
 15 44  1  0  0  0  0
 16 17  1  0  0  0  0
 16 45  1  0  0  0  0
 17 18  1  0  0  0  0
 17 46  1  0  0  0  0
 18 19  1  0  0  0  0
 18 47  1  0  0  0  0
 19 28  1  0  0  0  0
 19 48  1  0  0  0  0
 20 21  1  0  0  0  0
 20 23  2  0  0  0  0
 21 24  1  0  0  0  0
 21 26  2  0  0  0  0
 22 24  2  0  0  0  0
 22 30  1  0  0  0  0
 23 25  1  0  0  0  0
 24 32  1  0  0  0  0
 25 27  2  0  0  0  0
 25 29  1  0  0  0  0
 26 27  1  0  0  0  0
 26 33  1  0  0  0  0
 27 34  1  0  0  0  0
 28 49  1  0  0  0  0
 28 50  1  0  0  0  0
 29 31  2  0  0  0  0
 29 37  1  0  0  0  0
 30 35  2  0  0  0  0
 31 39  1  0  0  0  0
 32 36  2  0  0  0  0
 32 53  1  0  0  0  0
 35 36  1  0  0  0  0
 35 56  1  0  0  0  0
 36 57  1  0  0  0  0
 37 40  2  0  0  0  0
 37 58  1  0  0  0  0
 38 59  1  0  0  0  0
 38 60  1  0  0  0  0
 38 61  1  0  0  0  0
 39 41  2  0  0  0  0
 40 41  1  0  0  0  0
 40 62  1  0  0  0  0
 41 63  1  0  0  0  0
 42 43  1  0  0  0  0
 43 64  1  0  0  0  0
 43 65  1  0  0  0  0
M  END
> <PUBCHEM_COMPOUND_CID>
44370150

> <PUBCHEM_CONFORMER_RMSD>
1

> <PUBCHEM_CONFORMER_DIVERSEORDER>
1
17
50
8
57
41
25
23
3
49
2
6
24
4
13
19
51
11
9
10
15
5
7
42
55

> <PUBCHEM_MMFF94_PARTIAL_CHARGES>
51
1 -0.23
10 -0.57
11 -0.57
12 -0.04
13 -0.05
14 -0.49
15 0.54
16 0.28
17 0.28
18 0.28
19 0.28
2 -0.18
20 -0.05
21 -0.01
22 -0.15
23 -0.05
25 -0.01
26 0.09
27 0.09
28 0.28
3 -0.18
30 0.18
31 -0.15
32 -0.15
33 0.54
34 0.54
35 -0.15
36 -0.15
37 -0.15
38 0.28
39 0.18
4 -0.56
40 -0.15
41 -0.15
42 0.66
43 0.29
5 -0.56
51 0.27
52 0.4
53 0.15
54 0.4
55 0.37
56 0.15
57 0.15
58 0.15
6 -0.68
62 0.15
63 0.15
7 -0.68
8 -0.43
9 -0.57

> <PUBCHEM_EFFECTIVE_ROTOR_COUNT>
7.4

> <PUBCHEM_PHARMACOPHORE_FEATURES>
21
1 1 hydrophobe
1 10 acceptor
1 11 acceptor
1 12 cation
1 13 cation
1 13 donor
1 14 donor
1 4 acceptor
1 5 acceptor
1 6 acceptor
1 6 donor
1 7 acceptor
1 7 donor
1 9 acceptor
5 12 20 21 22 24 rings
5 13 23 25 29 31 rings
5 14 26 27 33 34 rings
6 20 21 23 25 26 27 rings
6 22 24 30 32 35 36 rings
6 29 31 37 39 40 41 rings
6 4 15 16 17 18 19 rings

> <PUBCHEM_HEAVY_ATOM_COUNT>
43

> <PUBCHEM_ATOM_DEF_STEREO_COUNT>
0

> <PUBCHEM_ATOM_UDEF_STEREO_COUNT>
5

> <PUBCHEM_BOND_DEF_STEREO_COUNT>
0

> <PUBCHEM_BOND_UDEF_STEREO_COUNT>
0

> <PUBCHEM_ISOTOPIC_ATOM_COUNT>
0

> <PUBCHEM_COMPONENT_COUNT>
1

> <PUBCHEM_CACTVS_TAUTO_COUNT>
21

> <PUBCHEM_CONFORMER_ID>
02A508E600000001

> <PUBCHEM_MMFF94_ENERGY>
193.7965

> <PUBCHEM_FEATURE_SELFOVERLAP>
107.065

> <PUBCHEM_SHAPE_FINGERPRINT>
10190108 129 18268730328945543881
10190206 1 18337965488986862684
10670039 82 18336270037814703148
10675989 125 17543327382338871085
10864689 126 18410289190423854061
1100329 8 18192699267103045241
11049842 53 17833260922986077978
12758862 11 18272378573119350662
12788726 201 18334014969156053808
13140716 1 18193819656429866065
13617811 41 18335978688444136045
13636023 51 17702945967443585876
13782708 43 17489585653994436710
13911987 19 18262232227893680469
14790565 3 18410283706157091209
14955137 171 18191328145954411995
15297060 5 18269565948511963473
15320467 1 18337657728826033489
15324884 4 17844239846941979474
15328829 1 17604137144075116810
15406563 228 17758398466248805158
16112460 7 18124321768923030219
19311894 1 18338808929941871083
19319366 153 17531788221683113907
20775438 99 17912343609744774767
21033650 10 18115313401110201834
21133410 127 17464262629960668972
21133410 32 15795412152383131378
21796203 349 18117304595446086033
22122407 14 15357995446716409724
23559900 14 18271807977380266140
3178227 256 18335985368141713075
350125 39 17979340972547552939
563151 40 17912947001548500969
5776283 40 18411146848781156324
6608658 132 17968382247438391852

> <PUBCHEM_SHAPE_MULTIPOLES>
832.7
13.61
6.99
1.98
19.36
0.33
0.9
-1.07
-11.85
-6.86
0.43
4.56
-0.4
1.38

> <PUBCHEM_SHAPE_SELFOVERLAP>
1849.898

> <PUBCHEM_SHAPE_VOLUME>
454.4

> <PUBCHEM_COORDINATE_TYPE>
2
5
10

$$$$
