11189864
  -OEChem-10052115183D

 52 55  0     0  0  0  0  0  0999 V2000
    3.6578   -2.1017   -1.0834 F   0  0  0  0  0  0  0  0  0  0  0  0
    2.1710   -3.5742   -0.5133 F   0  0  0  0  0  0  0  0  0  0  0  0
    3.4663   -2.6996    0.9986 F   0  0  0  0  0  0  0  0  0  0  0  0
    7.4404    1.8957   -1.4130 O   0  0  0  0  0  0  0  0  0  0  0  0
   -2.9427    1.1807    0.4633 O   0  0  0  0  0  0  0  0  0  0  0  0
    5.2580    1.5430   -2.2189 N   0  0  0  0  0  0  0  0  0  0  0  0
   -1.9081   -0.8563   -0.0560 N   0  0  0  0  0  0  0  0  0  0  0  0
   -4.2064   -0.6733   -0.1960 N   0  0  0  0  0  0  0  0  0  0  0  0
    4.3499    0.7645   -0.2687 C   0  0  0  0  0  0  0  0  0  0  0  0
    3.5527    0.2734    0.7477 C   0  0  0  0  0  0  0  0  0  0  0  0
    3.9973    1.0632   -1.6848 C   0  0  0  0  0  0  0  0  0  0  0  0
    5.6945    1.0536   -0.0314 C   0  0  0  0  0  0  0  0  0  0  0  0
    2.1566   -0.0350    0.5345 C   0  0  0  0  0  0  0  0  0  0  0  0
    6.2808    1.5530   -1.2787 C   0  0  0  0  0  0  0  0  0  0  0  0
    1.7509   -1.3062    0.1215 C   0  0  0  0  0  0  0  0  0  0  0  0
    4.1333    0.0790    2.0056 C   0  0  0  0  0  0  0  0  0  0  0  0
    6.2926    0.8711    1.2000 C   0  0  0  0  0  0  0  0  0  0  0  0
    1.2015    0.9611    0.7495 C   0  0  0  0  0  0  0  0  0  0  0  0
    5.4910    0.3752    2.2292 C   0  0  0  0  0  0  0  0  0  0  0  0
    0.3973   -1.5796   -0.0755 C   0  0  0  0  0  0  0  0  0  0  0  0
   -0.5542   -0.5828    0.1402 C   0  0  0  0  0  0  0  0  0  0  0  0
   -0.1520    0.6875    0.5526 C   0  0  0  0  0  0  0  0  0  0  0  0
    2.7420   -2.4000   -0.1170 C   0  0  0  0  0  0  0  0  0  0  0  0
   -5.5301   -0.1749   -0.1597 C   0  0  0  0  0  0  0  0  0  0  0  0
   -3.0174    0.0089    0.1078 C   0  0  0  0  0  0  0  0  0  0  0  0
   -7.0538    1.6323    0.2499 C   0  0  0  0  0  0  0  0  0  0  0  0
   -7.8847   -0.5220   -0.4610 C   0  0  0  0  0  0  0  0  0  0  0  0
   -6.5797   -1.0133   -0.4973 C   0  0  0  0  0  0  0  0  0  0  0  0
   -5.7488    1.1410    0.2133 C   0  0  0  0  0  0  0  0  0  0  0  0
   -8.1218    0.8007   -0.0874 C   0  0  0  0  0  0  0  0  0  0  0  0
   -7.3077    3.0464    0.6489 C   0  0  0  0  0  0  0  0  0  0  0  0
   -9.0265   -1.4113   -0.8206 C   0  0  0  0  0  0  0  0  0  0  0  0
    3.6978    0.1756   -2.2469 H   0  0  0  0  0  0  0  0  0  0  0  0
    3.2563    1.8615   -1.7740 H   0  0  0  0  0  0  0  0  0  0  0  0
    5.3813    1.8418   -3.1812 H   0  0  0  0  0  0  0  0  0  0  0  0
    3.5424   -0.3063    2.8344 H   0  0  0  0  0  0  0  0  0  0  0  0
    7.3381    1.1000    1.3693 H   0  0  0  0  0  0  0  0  0  0  0  0
    1.4972    1.9573    1.0711 H   0  0  0  0  0  0  0  0  0  0  0  0
    5.9181    0.2150    3.2157 H   0  0  0  0  0  0  0  0  0  0  0  0
    0.0744   -2.5670   -0.3965 H   0  0  0  0  0  0  0  0  0  0  0  0
   -0.8253    1.5116    0.7404 H   0  0  0  0  0  0  0  0  0  0  0  0
   -2.1237   -1.8038   -0.3563 H   0  0  0  0  0  0  0  0  0  0  0  0
   -4.1139   -1.6461   -0.4777 H   0  0  0  0  0  0  0  0  0  0  0  0
   -6.3929   -2.0436   -0.7897 H   0  0  0  0  0  0  0  0  0  0  0  0
   -4.9716    1.8382    0.4880 H   0  0  0  0  0  0  0  0  0  0  0  0
   -9.1399    1.1819   -0.0598 H   0  0  0  0  0  0  0  0  0  0  0  0
   -6.5937    3.7199    0.1629 H   0  0  0  0  0  0  0  0  0  0  0  0
   -8.3106    3.3752    0.3562 H   0  0  0  0  0  0  0  0  0  0  0  0
   -7.2151    3.1534    1.7344 H   0  0  0  0  0  0  0  0  0  0  0  0
   -9.2415   -1.3321   -1.8908 H   0  0  0  0  0  0  0  0  0  0  0  0
   -8.8034   -2.4573   -0.5843 H   0  0  0  0  0  0  0  0  0  0  0  0
   -9.9283   -1.1423   -0.2601 H   0  0  0  0  0  0  0  0  0  0  0  0
  1 23  1  0  0  0  0
  2 23  1  0  0  0  0
  3 23  1  0  0  0  0
  4 14  2  0  0  0  0
  5 25  2  0  0  0  0
  6 11  1  0  0  0  0
  6 14  1  0  0  0  0
  6 35  1  0  0  0  0
  7 21  1  0  0  0  0
  7 25  1  0  0  0  0
  7 42  1  0  0  0  0
  8 24  1  0  0  0  0
  8 25  1  0  0  0  0
  8 43  1  0  0  0  0
  9 10  2  0  0  0  0
  9 11  1  0  0  0  0
  9 12  1  0  0  0  0
 10 13  1  0  0  0  0
 10 16  1  0  0  0  0
 11 33  1  0  0  0  0
 11 34  1  0  0  0  0
 12 14  1  0  0  0  0
 12 17  2  0  0  0  0
 13 15  2  0  0  0  0
 13 18  1  0  0  0  0
 15 20  1  0  0  0  0
 15 23  1  0  0  0  0
 16 19  2  0  0  0  0
 16 36  1  0  0  0  0
 17 19  1  0  0  0  0
 17 37  1  0  0  0  0
 18 22  2  0  0  0  0
 18 38  1  0  0  0  0
 19 39  1  0  0  0  0
 20 21  2  0  0  0  0
 20 40  1  0  0  0  0
 21 22  1  0  0  0  0
 22 41  1  0  0  0  0
 24 28  2  0  0  0  0
 24 29  1  0  0  0  0
 26 29  2  0  0  0  0
 26 30  1  0  0  0  0
 26 31  1  0  0  0  0
 27 28  1  0  0  0  0
 27 30  2  0  0  0  0
 27 32  1  0  0  0  0
 28 44  1  0  0  0  0
 29 45  1  0  0  0  0
 30 46  1  0  0  0  0
 31 47  1  0  0  0  0
 31 48  1  0  0  0  0
 31 49  1  0  0  0  0
 32 50  1  0  0  0  0
 32 51  1  0  0  0  0
 32 52  1  0  0  0  0
M  END
> <PUBCHEM_COMPOUND_CID>
11189864

> <PUBCHEM_CONFORMER_RMSD>
0.8

> <PUBCHEM_CONFORMER_DIVERSEORDER>
1
17
7
20
18
9
15
14
12
3
19
5
10
16
13
11
4
6
2
8

> <PUBCHEM_MMFF94_PARTIAL_CHARGES>
42
1 -0.34
11 0.44
12 0.09
14 0.54
15 -0.14
16 -0.15
17 -0.15
18 -0.15
19 -0.15
2 -0.34
20 -0.15
21 0.12
22 -0.15
23 1.16
24 0.12
25 0.69
26 -0.14
27 -0.14
28 -0.15
29 -0.15
3 -0.34
30 -0.15
31 0.14
32 0.14
35 0.37
36 0.15
37 0.15
38 0.15
39 0.15
4 -0.57
40 0.15
41 0.15
42 0.37
43 0.37
44 0.15
45 0.15
46 0.15
5 -0.57
6 -0.73
7 -0.55
8 -0.55
9 -0.14

> <PUBCHEM_EFFECTIVE_ROTOR_COUNT>
6.4

> <PUBCHEM_PHARMACOPHORE_FEATURES>
9
1 4 acceptor
1 5 acceptor
1 6 donor
1 7 donor
1 8 donor
5 6 9 11 12 14 rings
6 13 15 18 20 21 22 rings
6 24 26 27 28 29 30 rings
6 9 10 12 16 17 19 rings

> <PUBCHEM_HEAVY_ATOM_COUNT>
32

> <PUBCHEM_ATOM_DEF_STEREO_COUNT>
0

> <PUBCHEM_ATOM_UDEF_STEREO_COUNT>
0

> <PUBCHEM_BOND_DEF_STEREO_COUNT>
0

> <PUBCHEM_BOND_UDEF_STEREO_COUNT>
0

> <PUBCHEM_ISOTOPIC_ATOM_COUNT>
0

> <PUBCHEM_COMPONENT_COUNT>
1

> <PUBCHEM_CACTVS_TAUTO_COUNT>
6

> <PUBCHEM_CONFORMER_ID>
00AABE6800000001

> <PUBCHEM_MMFF94_ENERGY>
98.6925

> <PUBCHEM_FEATURE_SELFOVERLAP>
45.809

> <PUBCHEM_SHAPE_FINGERPRINT>
10 15 17749112201572536553
10319688 140 16988012582851090870
10554248 39 18266444431053816007
10595046 47 18341049628172444627
10906281 52 18187091662642272195
11315181 36 17894348909279274361
11408170 132 18269277872466139229
11719270 70 18411695482965424074
13383665 225 18264224542320223397
13540713 5 17914348878789123330
13617811 41 18411982481048531092
13835254 42 18340206267656600629
14118638 360 18272368655918557939
14251764 18 18260263066992770945
14294032 229 18410004442782304109
14461889 52 18409165532801534035
15131766 46 16807582922607071140
15183329 4 18410576193519489601
15352257 5 14045738249225716101
15400415 2 18270677564117514175
15419008 47 13767915841320521607
1577012 14 18202002089373728745
15840311 113 16153421762148265130
20105231 36 17346605209764596119
20157964 124 17022899060624537240
2026 5 14116698457523724516
20771845 171 18259989271539184230
21130935 74 18270957943766853347
21360443 126 18334294318383110575
22149856 69 18341618062609543609
23081809 10 18412542077539238411
23569914 152 16122767145990696749
23576562 1 18122066665556950765
24771293 8 18041001743626266037
255183 451 18120092785072987122
335507 130 18339364162867911199
4073 2 18333455335804134731
4112364 45 14996577243330455550
44880568 143 17822847569066843725
45377200 153 15841260576323129167
5109719 28 17987513878425856809
59682541 52 16128383675097715212

> <PUBCHEM_SHAPE_MULTIPOLES>
610.04
26.03
2.52
1.44
44.14
1.08
-0.05
-10.03
-4.02
0.11
-0.29
-3.62
-0.5
-2.31

> <PUBCHEM_SHAPE_SELFOVERLAP>
1353.649

> <PUBCHEM_SHAPE_VOLUME>
328.5

> <PUBCHEM_COORDINATE_TYPE>
2
5
10

$$$$
