135750268
  -OEChem-10052115153D

 35 37  0     0  0  0  0  0  0999 V2000
    5.6027    0.4291   -0.0013 O   0  0  0  0  0  0  0  0  0  0  0  0
   -1.9656    0.9929    0.0025 N   0  0  0  0  0  0  0  0  0  0  0  0
   -0.6857    1.4096    0.0045 N   0  0  0  0  0  0  0  0  0  0  0  0
   -3.2425   -1.0642   -0.0020 N   0  0  0  0  0  0  0  0  0  0  0  0
   -1.7924   -3.0258   -0.0034 N   0  0  0  0  0  0  0  0  0  0  0  0
    0.5892   -2.8693    0.0000 N   0  0  0  0  0  0  0  0  0  0  0  0
   -3.0314    1.9668   -0.0011 C   0  0  0  0  0  0  0  0  0  0  0  0
   -2.0971   -0.3639    0.0003 C   0  0  0  0  0  0  0  0  0  0  0  0
   -0.8100   -0.8723    0.0010 C   0  0  0  0  0  0  0  0  0  0  0  0
    0.0131    0.2691    0.0036 C   0  0  0  0  0  0  0  0  0  0  0  0
   -3.0067    2.8334    1.2602 C   0  0  0  0  0  0  0  0  0  0  0  0
   -2.9954    2.8362   -1.2605 C   0  0  0  0  0  0  0  0  0  0  0  0
    1.4536    0.3118    0.0013 C   0  0  0  0  0  0  0  0  0  0  0  0
   -0.6771   -2.2570   -0.0010 C   0  0  0  0  0  0  0  0  0  0  0  0
    2.1497    0.3366   -1.2072 C   0  0  0  0  0  0  0  0  0  0  0  0
    2.1520    0.3263    1.2087 C   0  0  0  0  0  0  0  0  0  0  0  0
   -2.9888   -2.3907   -0.0036 C   0  0  0  0  0  0  0  0  0  0  0  0
    3.5439    0.3758   -1.2085 C   0  0  0  0  0  0  0  0  0  0  0  0
    3.5462    0.3654    1.2075 C   0  0  0  0  0  0  0  0  0  0  0  0
    4.2421    0.3901   -0.0011 C   0  0  0  0  0  0  0  0  0  0  0  0
   -3.9788    1.4144   -0.0060 H   0  0  0  0  0  0  0  0  0  0  0  0
   -3.8693    3.5078    1.2828 H   0  0  0  0  0  0  0  0  0  0  0  0
   -3.0412    2.2110    2.1613 H   0  0  0  0  0  0  0  0  0  0  0  0
   -2.0996    3.4457    1.3137 H   0  0  0  0  0  0  0  0  0  0  0  0
   -2.0884    3.4492   -1.3042 H   0  0  0  0  0  0  0  0  0  0  0  0
   -3.0212    2.2157   -2.1632 H   0  0  0  0  0  0  0  0  0  0  0  0
   -3.8582    3.5101   -1.2896 H   0  0  0  0  0  0  0  0  0  0  0  0
    1.6200    0.3250   -2.1569 H   0  0  0  0  0  0  0  0  0  0  0  0
    1.6244    0.3065    2.1595 H   0  0  0  0  0  0  0  0  0  0  0  0
   -3.8607   -3.0359   -0.0054 H   0  0  0  0  0  0  0  0  0  0  0  0
    4.0744    0.3947   -2.1567 H   0  0  0  0  0  0  0  0  0  0  0  0
    4.0848    0.3763    2.1512 H   0  0  0  0  0  0  0  0  0  0  0  0
    1.4377   -2.3228    0.0018 H   0  0  0  0  0  0  0  0  0  0  0  0
    0.6408   -3.8792   -0.0013 H   0  0  0  0  0  0  0  0  0  0  0  0
    5.9172    0.4419   -0.9216 H   0  0  0  0  0  0  0  0  0  0  0  0
  1 20  1  0  0  0  0
  1 35  1  0  0  0  0
  2  3  1  0  0  0  0
  2  7  1  0  0  0  0
  2  8  1  0  0  0  0
  3 10  2  0  0  0  0
  4  8  2  0  0  0  0
  4 17  1  0  0  0  0
  5 14  1  0  0  0  0
  5 17  2  0  0  0  0
  6 14  1  0  0  0  0
  6 33  1  0  0  0  0
  6 34  1  0  0  0  0
  7 11  1  0  0  0  0
  7 12  1  0  0  0  0
  7 21  1  0  0  0  0
  8  9  1  0  0  0  0
  9 10  1  0  0  0  0
  9 14  2  0  0  0  0
 10 13  1  0  0  0  0
 11 22  1  0  0  0  0
 11 23  1  0  0  0  0
 11 24  1  0  0  0  0
 12 25  1  0  0  0  0
 12 26  1  0  0  0  0
 12 27  1  0  0  0  0
 13 15  2  0  0  0  0
 13 16  1  0  0  0  0
 15 18  1  0  0  0  0
 15 28  1  0  0  0  0
 16 19  2  0  0  0  0
 16 29  1  0  0  0  0
 17 30  1  0  0  0  0
 18 20  2  0  0  0  0
 18 31  1  0  0  0  0
 19 20  1  0  0  0  0
 19 32  1  0  0  0  0
M  END
> <PUBCHEM_COMPOUND_CID>
135750268

> <PUBCHEM_CONFORMER_RMSD>
0.6

> <PUBCHEM_CONFORMER_DIVERSEORDER>
1
2
3

> <PUBCHEM_MMFF94_PARTIAL_CHARGES>
25
1 -0.53
10 0.23
13 0.05
14 0.41
15 -0.15
16 -0.15
17 0.47
18 -0.15
19 -0.15
2 0.31
20 0.08
28 0.15
29 0.15
3 -0.71
30 0.15
31 0.15
32 0.15
33 0.4
34 0.4
35 0.45
4 -0.57
5 -0.62
6 -0.9
7 0.26
8 0.11

> <PUBCHEM_EFFECTIVE_ROTOR_COUNT>
2

> <PUBCHEM_PHARMACOPHORE_FEATURES>
10
1 1 donor
1 3 acceptor
1 6 cation
1 6 donor
3 2 4 8 cation
3 4 5 17 cation
3 7 11 12 hydrophobe
5 2 3 8 9 10 rings
6 13 15 16 18 19 20 rings
6 4 5 8 9 14 17 rings

> <PUBCHEM_HEAVY_ATOM_COUNT>
20

> <PUBCHEM_ATOM_DEF_STEREO_COUNT>
0

> <PUBCHEM_ATOM_UDEF_STEREO_COUNT>
0

> <PUBCHEM_BOND_DEF_STEREO_COUNT>
0

> <PUBCHEM_BOND_UDEF_STEREO_COUNT>
0

> <PUBCHEM_ISOTOPIC_ATOM_COUNT>
0

> <PUBCHEM_COMPONENT_COUNT>
1

> <PUBCHEM_CACTVS_TAUTO_COUNT>
-1

> <PUBCHEM_CONFORMER_ID>
0817627C00000001

> <PUBCHEM_MMFF94_ENERGY>
47.0171

> <PUBCHEM_FEATURE_SELFOVERLAP>
51.025

> <PUBCHEM_SHAPE_FINGERPRINT>
10319926 262 18270379678138812056
10411042 1 17906172111335359083
11315181 36 18187642557582699536
11582403 64 16839043050969933336
11725454 13 16841023297202344056
12173636 292 18409725179497375292
12236239 1 17676483986526866798
12500047 106 18411976941025437724
12553582 1 18121223348554372127
12788726 201 18192728944694142127
13140716 1 18122631819049848387
13878862 14 16968579591431589777
14178342 30 18408595959907717434
14508225 48 18195515120555609885
15042514 8 18265339597735284475
16752209 62 18336534006188002395
16945 1 18410855507800303811
1741750 31 18341333284164496513
18186145 218 18198913513143934244
19049666 15 17988652860945084518
20510252 161 18271245022878826097
20645477 56 18411987944257234216
21065201 7 18412262852935493338
21524375 3 18188492367763640777
22182313 1 18265630792454535983
22907989 373 18261947552744341197
2334 1 18338517422459763575
23402539 116 18341325703795217199
23419403 2 17129563894926491673
23493267 7 18272368651038009024
23557571 272 18272657882963383460
23559900 14 18201162045267936774
23598291 2 17677057935976007804
23845131 108 18052837857914362777
2748010 2 18193568770247245023
283562 15 18411696629985143827
3091708 16 9199718793405408459
350125 39 18194411000396432107
43471831 8 18335415764150365682
458136 41 17979932514161489161
5104073 3 18410289203899243040
559249 180 18335697192668101218
573450 72 18261663836158360602
59755656 520 18129951053128661745
6049 1 17988359394435722544
633830 44 17771347474301700309
6992083 37 18040438797571965100
7615 1 17967817201603811084
77492 1 17676203606729867360
81228 2 18338240491426356161
84936 182 17695619654694854705
90525 40 18260547826954759798
9709674 26 18272378576860722806
9862522 239 17895749574290307669

> <PUBCHEM_SHAPE_MULTIPOLES>
380.82
7.75
3.23
1.08
8.29
1.17
0
-3.32
0
-4.85
0.01
0.37
-0.6
-0.01

> <PUBCHEM_SHAPE_SELFOVERLAP>
836.653

> <PUBCHEM_SHAPE_VOLUME>
205.4

> <PUBCHEM_COORDINATE_TYPE>
2
5
10

$$$$
