49830963
  -OEChem-10052115183D

 33 35  0     0  0  0  0  0  0999 V2000
   -5.8212   -1.0296   -0.5267 S   0  0  0  0  0  0  0  0  0  0  0  0
    6.1666   -1.5369   -0.9115 O   0  0  0  0  0  0  0  0  0  0  0  0
    3.9183   -0.1788    0.1543 N   0  0  0  0  0  0  0  0  0  0  0  0
    2.6698    1.8478    0.1114 N   0  0  0  0  0  0  0  0  0  0  0  0
    0.2836    0.3541    0.0668 C   0  0  0  0  0  0  0  0  0  0  0  0
    0.2399    1.7635    0.0559 C   0  0  0  0  0  0  0  0  0  0  0  0
   -2.1475    0.2993    0.0111 C   0  0  0  0  0  0  0  0  0  0  0  0
   -0.9213   -0.3672    0.0440 C   0  0  0  0  0  0  0  0  0  0  0  0
    1.5285   -0.2848    0.0998 C   0  0  0  0  0  0  0  0  0  0  0  0
    2.6729    0.4978    0.1208 C   0  0  0  0  0  0  0  0  0  0  0  0
   -0.9996    2.4238    0.0225 C   0  0  0  0  0  0  0  0  0  0  0  0
   -2.1864    1.6916    0.0004 C   0  0  0  0  0  0  0  0  0  0  0  0
   -3.3714   -0.4519   -0.0119 C   0  0  0  0  0  0  0  0  0  0  0  0
    1.4577    2.4462    0.0790 C   0  0  0  0  0  0  0  0  0  0  0  0
    4.0211   -1.6012    0.1666 C   0  0  0  0  0  0  0  0  0  0  0  0
   -3.6031   -1.7362    0.5599 C   0  0  0  0  0  0  0  0  0  0  0  0
   -4.4944    0.0476   -0.6340 C   0  0  0  0  0  0  0  0  0  0  0  0
    5.4809   -2.0162    0.2383 C   0  0  0  0  0  0  0  0  0  0  0  0
   -4.8945   -2.1691    0.3535 C   0  0  0  0  0  0  0  0  0  0  0  0
   -0.8819   -1.4553    0.0407 H   0  0  0  0  0  0  0  0  0  0  0  0
    1.5504   -1.3696    0.1060 H   0  0  0  0  0  0  0  0  0  0  0  0
   -1.0476    3.5104    0.0186 H   0  0  0  0  0  0  0  0  0  0  0  0
   -3.1200    2.2481   -0.0021 H   0  0  0  0  0  0  0  0  0  0  0  0
    1.4951    3.5322    0.0722 H   0  0  0  0  0  0  0  0  0  0  0  0
    4.7481    0.4032    0.1658 H   0  0  0  0  0  0  0  0  0  0  0  0
    3.5883   -2.0179   -0.7509 H   0  0  0  0  0  0  0  0  0  0  0  0
    3.5049   -2.0277    1.0345 H   0  0  0  0  0  0  0  0  0  0  0  0
   -2.8751   -2.3239    1.1051 H   0  0  0  0  0  0  0  0  0  0  0  0
    5.5656   -3.1071    0.2635 H   0  0  0  0  0  0  0  0  0  0  0  0
    5.9662   -1.6021    1.1285 H   0  0  0  0  0  0  0  0  0  0  0  0
   -4.6281    0.9785   -1.1682 H   0  0  0  0  0  0  0  0  0  0  0  0
   -5.3386   -3.0992    0.6792 H   0  0  0  0  0  0  0  0  0  0  0  0
    7.0919   -1.8249   -0.8321 H   0  0  0  0  0  0  0  0  0  0  0  0
  1 17  1  0  0  0  0
  1 19  1  0  0  0  0
  2 18  1  0  0  0  0
  2 33  1  0  0  0  0
  3 10  1  0  0  0  0
  3 15  1  0  0  0  0
  3 25  1  0  0  0  0
  4 10  2  0  0  0  0
  4 14  1  0  0  0  0
  5  6  1  0  0  0  0
  5  8  1  0  0  0  0
  5  9  2  0  0  0  0
  6 11  1  0  0  0  0
  6 14  2  0  0  0  0
  7  8  2  0  0  0  0
  7 12  1  0  0  0  0
  7 13  1  0  0  0  0
  8 20  1  0  0  0  0
  9 10  1  0  0  0  0
  9 21  1  0  0  0  0
 11 12  2  0  0  0  0
 11 22  1  0  0  0  0
 12 23  1  0  0  0  0
 13 16  1  0  0  0  0
 13 17  2  0  0  0  0
 14 24  1  0  0  0  0
 15 18  1  0  0  0  0
 15 26  1  0  0  0  0
 15 27  1  0  0  0  0
 16 19  2  0  0  0  0
 16 28  1  0  0  0  0
 17 31  1  0  0  0  0
 18 29  1  0  0  0  0
 18 30  1  0  0  0  0
 19 32  1  0  0  0  0
M  END
> <PUBCHEM_COMPOUND_CID>
49830963

> <PUBCHEM_CONFORMER_RMSD>
0.6

> <PUBCHEM_CONFORMER_DIVERSEORDER>
3
29
15
31
5
27
13
17
8
21
12
4
16
19
26
6
10
30
28
23
24
14
7
18
2
25
9
11
20
22
1

> <PUBCHEM_MMFF94_PARTIAL_CHARGES>
27
1 -0.08
10 0.41
11 -0.15
12 -0.15
13 -0.05
14 0.16
15 0.37
16 -0.15
17 -0.11
18 0.28
19 -0.11
2 -0.68
20 0.15
21 0.15
22 0.15
23 0.15
24 0.15
25 0.4
28 0.15
3 -0.87
31 0.15
32 0.15
33 0.4
4 -0.62
7 0.05
8 -0.15
9 -0.15

> <PUBCHEM_EFFECTIVE_ROTOR_COUNT>
4

> <PUBCHEM_PHARMACOPHORE_FEATURES>
7
1 2 acceptor
1 2 donor
1 3 donor
3 3 4 10 cation
5 1 13 16 17 19 rings
6 4 5 6 9 10 14 rings
6 5 6 7 8 11 12 rings

> <PUBCHEM_HEAVY_ATOM_COUNT>
19

> <PUBCHEM_ATOM_DEF_STEREO_COUNT>
0

> <PUBCHEM_ATOM_UDEF_STEREO_COUNT>
0

> <PUBCHEM_BOND_DEF_STEREO_COUNT>
0

> <PUBCHEM_BOND_UDEF_STEREO_COUNT>
0

> <PUBCHEM_ISOTOPIC_ATOM_COUNT>
0

> <PUBCHEM_COMPONENT_COUNT>
1

> <PUBCHEM_CACTVS_TAUTO_COUNT>
3

> <PUBCHEM_CONFORMER_ID>
02F85C3300000003

> <PUBCHEM_MMFF94_ENERGY>
54.5887

> <PUBCHEM_FEATURE_SELFOVERLAP>
35.55

> <PUBCHEM_SHAPE_FINGERPRINT>
10411042 1 18411418405791910064
10622 236 17485624264282949911
11796584 16 17677038153246009059
12032990 46 18409729586207608713
12107183 9 18270411482034327401
12403259 118 12823291330001604435
12403259 226 18410287021254736533
12555020 224 18337099151603299063
12596602 18 14836112265140289742
12760667 363 18341894078450478011
12916754 54 18411420613484591961
13134695 92 18057879328827957281
13140716 1 18343023255043399689
13288520 33 18411419475254597631
13533116 47 18201154463669581537
13583140 156 14907614528564760115
13740256 8 18410577275502731186
13862211 1 18412541002869441342
13955234 65 18126284391950258816
14123256 34 18412834581322539414
14508225 48 18333725806352018093
14790565 3 17183909605854900093
14866123 147 18267869368111526273
15042514 8 18340207362930854745
15188451 53 16056301939201519879
15196674 1 18410572898715025601
15352361 1 18410292497422019274
17492 89 18122625222123084315
18186145 218 17604133935465559597
18222031 100 18341606019125411402
193927 3 18271534130086300510
19784866 240 18413394228303107107
200 152 18201716288927055377
20028762 73 18131064969718728663
20281475 54 18410017654049010401
20374829 77 18335417945877083675
20403669 9 18341335521747746198
20645477 70 18335133249764389923
21033650 10 16588296147369798965
21267235 1 18409453592004819651
21279426 13 18334565837999558637
21682296 61 18130231462631950782
221490 88 18262802985453930681
2297311 6 18272095942369137214
23402539 116 18340763758848000285
23403322 49 18408321081895310659
23522609 53 18122941739089343884
23559900 14 18335413608086773833
25147074 1 18339943544359164456
2838139 119 8069740763644612362
2871803 45 18187357744661896179
3004659 81 18113614594856102474
312423 11 18411149042707818432
335352 9 18410291368568320261
3421961 26 18340766039491744640
465052 167 18271812353667448702
5104073 3 18272932717250651505
559249 180 18340202991149408821
59682541 35 18272356595951117370
59755656 215 18336543798877240687
76465 3 18411135827135224400
77188 2 18412825806599274400
7970288 3 18337948996334207250
8863177 126 17970360415059754811
9709674 26 18116996796219490459

> <PUBCHEM_SHAPE_MULTIPOLES>
379.03
12.61
2.7
0.71
4.25
0.66
-0.04
-11.82
-1.76
1.1
0.18
-0.09
-0.12
0.51

> <PUBCHEM_SHAPE_SELFOVERLAP>
817.565

> <PUBCHEM_SHAPE_VOLUME>
210.4

> <PUBCHEM_COORDINATE_TYPE>
2
5
10

$$$$
