49830850
  -OEChem-10052115193D

 52 54  0     0  0  0  0  0  0999 V2000
    5.2541    1.3505   -1.1241 Cl  0  0  0  0  0  0  0  0  0  0  0  0
    7.5418   -0.7040   -0.1728 Cl  0  0  0  0  0  0  0  0  0  0  0  0
    2.5430    0.5570   -0.2107 O   0  0  0  0  0  0  0  0  0  0  0  0
   -3.4434    3.4559    1.2281 O   0  0  0  0  0  0  0  0  0  0  0  0
   -1.4271    4.3187    0.6305 O   0  0  0  0  0  0  0  0  0  0  0  0
   -2.8823    1.0384    0.0916 N   0  0  0  0  0  0  0  0  0  0  0  0
   -0.8590    1.6141   -0.6169 C   0  0  0  0  0  0  0  0  0  0  0  0
   -1.0973    0.2646   -1.0005 C   0  0  0  0  0  0  0  0  0  0  0  0
   -2.3734   -0.0719   -0.5437 C   0  0  0  0  0  0  0  0  0  0  0  0
    0.3675    2.3928   -0.8928 C   0  0  0  0  0  0  0  0  0  0  0  0
   -1.9742    2.0623    0.0526 C   0  0  0  0  0  0  0  0  0  0  0  0
   -2.9393   -1.3355   -0.7471 C   0  0  0  0  0  0  0  0  0  0  0  0
    1.2812    2.5171    0.3385 C   0  0  0  0  0  0  0  0  0  0  0  0
   -0.3475   -0.7058   -1.6945 C   0  0  0  0  0  0  0  0  0  0  0  0
   -4.2693   -1.6188   -0.2460 C   0  0  0  0  0  0  0  0  0  0  0  0
   -2.1770   -2.2818   -1.4378 C   0  0  0  0  0  0  0  0  0  0  0  0
    1.7893    1.1680    0.8274 C   0  0  0  0  0  0  0  0  0  0  0  0
   -0.9010   -1.9740   -1.9052 C   0  0  0  0  0  0  0  0  0  0  0  0
   -2.2138    3.3475    0.6317 C   0  0  0  0  0  0  0  0  0  0  0  0
   -4.4951   -2.1256    1.0051 C   0  0  0  0  0  0  0  0  0  0  0  0
   -5.3823   -1.3180   -1.2325 C   0  0  0  0  0  0  0  0  0  0  0  0
   -5.8739   -2.4278    1.5459 C   0  0  0  0  0  0  0  0  0  0  0  0
   -3.4052   -2.4661    1.9924 C   0  0  0  0  0  0  0  0  0  0  0  0
    3.5491   -0.2913    0.1727 C   0  0  0  0  0  0  0  0  0  0  0  0
    4.8778   -0.0539   -0.1793 C   0  0  0  0  0  0  0  0  0  0  0  0
    3.2186   -1.4138    0.9322 C   0  0  0  0  0  0  0  0  0  0  0  0
    5.8760   -0.9388    0.2281 C   0  0  0  0  0  0  0  0  0  0  0  0
    4.2170   -2.2987    1.3396 C   0  0  0  0  0  0  0  0  0  0  0  0
    5.5457   -2.0612    0.9875 C   0  0  0  0  0  0  0  0  0  0  0  0
    0.9276    1.9466   -1.7235 H   0  0  0  0  0  0  0  0  0  0  0  0
    0.1001    3.3984   -1.2401 H   0  0  0  0  0  0  0  0  0  0  0  0
   -3.7942    1.0897    0.5248 H   0  0  0  0  0  0  0  0  0  0  0  0
    2.1373    3.1435    0.0587 H   0  0  0  0  0  0  0  0  0  0  0  0
    0.7633    3.0216    1.1608 H   0  0  0  0  0  0  0  0  0  0  0  0
    0.6474   -0.4854   -2.0698 H   0  0  0  0  0  0  0  0  0  0  0  0
   -2.5760   -3.2777   -1.6195 H   0  0  0  0  0  0  0  0  0  0  0  0
    0.9677    0.5098    1.1279 H   0  0  0  0  0  0  0  0  0  0  0  0
    2.4208    1.3387    1.7093 H   0  0  0  0  0  0  0  0  0  0  0  0
   -0.3273   -2.7262   -2.4402 H   0  0  0  0  0  0  0  0  0  0  0  0
   -6.0974   -2.1452   -1.2868 H   0  0  0  0  0  0  0  0  0  0  0  0
   -5.9093   -0.4037   -0.9407 H   0  0  0  0  0  0  0  0  0  0  0  0
   -4.9984   -1.1719   -2.2487 H   0  0  0  0  0  0  0  0  0  0  0  0
   -5.9877   -3.5052    1.7044 H   0  0  0  0  0  0  0  0  0  0  0  0
   -6.6816   -2.0993    0.8873 H   0  0  0  0  0  0  0  0  0  0  0  0
   -6.0202   -1.9194    2.5051 H   0  0  0  0  0  0  0  0  0  0  0  0
   -2.3958   -2.2776    1.6183 H   0  0  0  0  0  0  0  0  0  0  0  0
   -3.5285   -1.8739    2.9054 H   0  0  0  0  0  0  0  0  0  0  0  0
   -3.4590   -3.5271    2.2592 H   0  0  0  0  0  0  0  0  0  0  0  0
   -3.5801    4.3466    1.6159 H   0  0  0  0  0  0  0  0  0  0  0  0
    2.1873   -1.6195    1.2057 H   0  0  0  0  0  0  0  0  0  0  0  0
    3.9594   -3.1739    1.9288 H   0  0  0  0  0  0  0  0  0  0  0  0
    6.3104   -2.7618    1.3133 H   0  0  0  0  0  0  0  0  0  0  0  0
  1 25  1  0  0  0  0
  2 27  1  0  0  0  0
  3 17  1  0  0  0  0
  3 24  1  0  0  0  0
  4 19  1  0  0  0  0
  4 49  1  0  0  0  0
  5 19  2  0  0  0  0
  6  9  1  0  0  0  0
  6 11  1  0  0  0  0
  6 32  1  0  0  0  0
  7  8  1  0  0  0  0
  7 10  1  0  0  0  0
  7 11  2  0  0  0  0
  8  9  2  0  0  0  0
  8 14  1  0  0  0  0
  9 12  1  0  0  0  0
 10 13  1  0  0  0  0
 10 30  1  0  0  0  0
 10 31  1  0  0  0  0
 11 19  1  0  0  0  0
 12 15  1  0  0  0  0
 12 16  2  0  0  0  0
 13 17  1  0  0  0  0
 13 33  1  0  0  0  0
 13 34  1  0  0  0  0
 14 18  2  0  0  0  0
 14 35  1  0  0  0  0
 15 20  2  0  0  0  0
 15 21  1  0  0  0  0
 16 18  1  0  0  0  0
 16 36  1  0  0  0  0
 17 37  1  0  0  0  0
 17 38  1  0  0  0  0
 18 39  1  0  0  0  0
 20 22  1  0  0  0  0
 20 23  1  0  0  0  0
 21 40  1  0  0  0  0
 21 41  1  0  0  0  0
 21 42  1  0  0  0  0
 22 43  1  0  0  0  0
 22 44  1  0  0  0  0
 22 45  1  0  0  0  0
 23 46  1  0  0  0  0
 23 47  1  0  0  0  0
 23 48  1  0  0  0  0
 24 25  2  0  0  0  0
 24 26  1  0  0  0  0
 25 27  1  0  0  0  0
 26 28  2  0  0  0  0
 26 50  1  0  0  0  0
 27 29  2  0  0  0  0
 28 29  1  0  0  0  0
 28 51  1  0  0  0  0
 29 52  1  0  0  0  0
M  END
> <PUBCHEM_COMPOUND_CID>
49830850

> <PUBCHEM_CONFORMER_RMSD>
1

> <PUBCHEM_CONFORMER_DIVERSEORDER>
2
122
240
5
95
135
31
212
149
169
35
16
117
176
181
235
33
174
92
190
112
29
164
248
90
144
172
154
40
213
108
225
167
78
116
153
39
139
81
162
6
93
128
56
182
126
115
89
51
152
25
151
243
229
208
216
105
161
129
147
15
47
150
239
125
22
134
142
130
238
67
34
219
104
7
217
185
42
69
168
37
227
207
107
50
155
61
19
43
68
194
1
46
71
165
60
82
237
80
247
103
58
20
222
85
53
199
146
84
73
72
111
38
57
100
246
87
48
63
244
188
74
145
121
113
189
98
198
136
131
65
41
18
106
54
191
96
70
94
102
8
196
132
12
32
204
192
220
124
30
99
55
242
195
91
64
76
234
59
236
45
184
127
4
218
123
23
49
133
228
79
9
209
137
28
11
183
221
88
3
231
83
17
44
156
118
180
159
110
66
201
148
141
158
206
233
26
214
27
163
21
224
157
13
226
171
245
24
86
97
119
215
186
140
114
241
77
36
173
138
160
203
170
232
179
230
193
10
223
62
101
175
211
52
205
166
109
197
75
14
120
177
143
187
210
178
200
202

> <PUBCHEM_MMFF94_PARTIAL_CHARGES>
35
1 -0.18
10 0.18
11 -0.24
12 0.03
14 -0.15
15 -0.17
16 -0.15
17 0.28
18 -0.15
19 0.81
2 -0.18
20 -0.28
21 0.14
22 0.14
23 0.14
24 0.08
25 0.18
26 -0.15
27 0.18
28 -0.15
29 -0.15
3 -0.36
32 0.27
35 0.15
36 0.15
39 0.15
4 -0.65
49 0.5
5 -0.57
50 0.15
51 0.15
52 0.15
6 0.03
7 -0.18
9 -0.15

> <PUBCHEM_EFFECTIVE_ROTOR_COUNT>
7

> <PUBCHEM_PHARMACOPHORE_FEATURES>
11
1 21 hydrophobe
1 3 acceptor
1 4 acceptor
1 5 acceptor
1 6 cation
1 6 donor
3 20 22 23 hydrophobe
3 4 5 19 anion
5 6 7 8 9 11 rings
6 24 25 26 27 28 29 rings
6 8 9 12 14 16 18 rings

> <PUBCHEM_HEAVY_ATOM_COUNT>
29

> <PUBCHEM_ATOM_DEF_STEREO_COUNT>
0

> <PUBCHEM_ATOM_UDEF_STEREO_COUNT>
0

> <PUBCHEM_BOND_DEF_STEREO_COUNT>
0

> <PUBCHEM_BOND_UDEF_STEREO_COUNT>
0

> <PUBCHEM_ISOTOPIC_ATOM_COUNT>
0

> <PUBCHEM_COMPONENT_COUNT>
1

> <PUBCHEM_CACTVS_TAUTO_COUNT>
6

> <PUBCHEM_CONFORMER_ID>
02F85BC200000002

> <PUBCHEM_MMFF94_ENERGY>
73.2104

> <PUBCHEM_FEATURE_SELFOVERLAP>
55.969

> <PUBCHEM_SHAPE_FINGERPRINT>
10305334 12 17830163619767983459
11578080 2 16987171418433846011
11756154 5 18261108638468694586
11991303 11 18116423740350784621
12107183 9 17690272721554566834
12422481 6 17987819440132712851
12553582 1 18269540780135393606
12633257 1 17203049698080411787
12760667 363 18409726283652162191
12788726 201 18413113878671066606
13726171 33 17988099854422014392
14840074 17 18200599218887788038
14844126 61 18342450422564713779
14866123 147 18265330608589546297
15537594 2 18339923848124143246
16110190 28 18130221679123178910
17492 54 11530749462496806659
21795232 338 18202283598393562864
22182313 1 17631182895801703636
23559900 14 17823130301840860229
2838139 119 12535087277694121419
329604 57 18187365450360992650
4058900 60 17543337273058171213
44880168 125 17203336602513029278
497634 4 17894629236455563230
5104073 3 18340475678813021160
5486654 36 18410854335079202928
56633871 153 18201439241756380279
57724786 102 14835829742971845914
7097593 13 17837487827850656279
79837 15 17910962344247663929
9896288 288 18269278967255245778

> <PUBCHEM_SHAPE_MULTIPOLES>
577.96
14.56
4.22
1.61
17.15
3.85
-0.08
-11.08
2.68
-3.85
1.69
-1.31
-0.88
-1.1

> <PUBCHEM_SHAPE_SELFOVERLAP>
1225.617

> <PUBCHEM_SHAPE_VOLUME>
327.1

> <PUBCHEM_COORDINATE_TYPE>
2
5
10

$$$$
