489125
  -OEChem-10062122013D

 45 50  0     0  0  0  0  0  0999 V2000
   -2.0387   -3.7621   -0.0003 O   0  0  0  0  0  0  0  0  0  0  0  0
    2.5686   -3.4960   -0.0010 O   0  0  0  0  0  0  0  0  0  0  0  0
   -1.4377    1.7077    0.0001 N   0  0  0  0  0  0  0  0  0  0  0  0
    1.3413    1.8683    0.0008 N   0  0  0  0  0  0  0  0  0  0  0  0
    0.2874   -4.0187   -0.0003 N   0  0  0  0  0  0  0  0  0  0  0  0
   -0.6799    0.5878    0.0007 C   0  0  0  0  0  0  0  0  0  0  0  0
   -1.2457   -0.7312    0.0008 C   0  0  0  0  0  0  0  0  0  0  0  0
    0.7176    0.6686    0.0008 C   0  0  0  0  0  0  0  0  0  0  0  0
    1.4315   -0.5764    0.0005 C   0  0  0  0  0  0  0  0  0  0  0  0
   -0.5293   -1.9247    0.0010 C   0  0  0  0  0  0  0  0  0  0  0  0
   -2.6424   -0.2734    0.0005 C   0  0  0  0  0  0  0  0  0  0  0  0
   -2.7121    1.1606   -0.0001 C   0  0  0  0  0  0  0  0  0  0  0  0
    0.8574   -1.8445    0.0006 C   0  0  0  0  0  0  0  0  0  0  0  0
   -1.1514    3.1197   -0.0001 C   0  0  0  0  0  0  0  0  0  0  0  0
    2.7662    0.0393    0.0002 C   0  0  0  0  0  0  0  0  0  0  0  0
    2.6702    1.4717    0.0004 C   0  0  0  0  0  0  0  0  0  0  0  0
   -0.9041   -3.3279    0.0003 C   0  0  0  0  0  0  0  0  0  0  0  0
    1.3915   -3.1953   -0.0004 C   0  0  0  0  0  0  0  0  0  0  0  0
   -3.8694   -0.9797    0.0005 C   0  0  0  0  0  0  0  0  0  0  0  0
   -3.9397    1.8402   -0.0012 C   0  0  0  0  0  0  0  0  0  0  0  0
   -0.4086    3.5528   -1.2656 C   0  0  0  0  0  0  0  0  0  0  0  0
   -0.4096    3.5537    1.2654 C   0  0  0  0  0  0  0  0  0  0  0  0
    4.0664   -0.5209   -0.0002 C   0  0  0  0  0  0  0  0  0  0  0  0
    3.8114    2.2884    0.0000 C   0  0  0  0  0  0  0  0  0  0  0  0
   -5.0878   -0.2921   -0.0004 C   0  0  0  0  0  0  0  0  0  0  0  0
   -5.1202    1.0962   -0.0013 C   0  0  0  0  0  0  0  0  0  0  0  0
    5.1975    0.3025   -0.0007 C   0  0  0  0  0  0  0  0  0  0  0  0
    5.0698    1.6854   -0.0008 C   0  0  0  0  0  0  0  0  0  0  0  0
   -2.0915    3.6776   -0.0007 H   0  0  0  0  0  0  0  0  0  0  0  0
    1.0869    2.8248    0.0011 H   0  0  0  0  0  0  0  0  0  0  0  0
   -3.8843   -2.0649    0.0010 H   0  0  0  0  0  0  0  0  0  0  0  0
   -4.0070    2.9227   -0.0018 H   0  0  0  0  0  0  0  0  0  0  0  0
    0.0571    2.7526   -1.8488 H   0  0  0  0  0  0  0  0  0  0  0  0
    0.3029    4.3699   -1.1037 H   0  0  0  0  0  0  0  0  0  0  0  0
   -1.1540    3.9651   -1.9613 H   0  0  0  0  0  0  0  0  0  0  0  0
   -1.1555    3.9658    1.9605 H   0  0  0  0  0  0  0  0  0  0  0  0
    0.3016    4.3710    1.1036 H   0  0  0  0  0  0  0  0  0  0  0  0
    0.0562    2.7540    1.8494 H   0  0  0  0  0  0  0  0  0  0  0  0
    0.3459   -5.0311   -0.0010 H   0  0  0  0  0  0  0  0  0  0  0  0
    4.2062   -1.5971   -0.0003 H   0  0  0  0  0  0  0  0  0  0  0  0
    3.7218    3.3707    0.0000 H   0  0  0  0  0  0  0  0  0  0  0  0
   -6.0186   -0.8531   -0.0005 H   0  0  0  0  0  0  0  0  0  0  0  0
   -6.0773    1.6113   -0.0020 H   0  0  0  0  0  0  0  0  0  0  0  0
    6.1867   -0.1475   -0.0011 H   0  0  0  0  0  0  0  0  0  0  0  0
    5.9609    2.3078   -0.0013 H   0  0  0  0  0  0  0  0  0  0  0  0
  1 17  2  0  0  0  0
  2 18  2  0  0  0  0
  3  6  1  0  0  0  0
  3 12  1  0  0  0  0
  3 14  1  0  0  0  0
  4  8  1  0  0  0  0
  4 16  1  0  0  0  0
  4 30  1  0  0  0  0
  5 17  1  0  0  0  0
  5 18  1  0  0  0  0
  5 39  1  0  0  0  0
  6  7  1  0  0  0  0
  6  8  2  0  0  0  0
  7 10  2  0  0  0  0
  7 11  1  0  0  0  0
  8  9  1  0  0  0  0
  9 13  2  0  0  0  0
  9 15  1  0  0  0  0
 10 13  1  0  0  0  0
 10 17  1  0  0  0  0
 11 12  1  0  0  0  0
 11 19  2  0  0  0  0
 12 20  2  0  0  0  0
 13 18  1  0  0  0  0
 14 21  1  0  0  0  0
 14 22  1  0  0  0  0
 14 29  1  0  0  0  0
 15 16  1  0  0  0  0
 15 23  2  0  0  0  0
 16 24  2  0  0  0  0
 19 25  1  0  0  0  0
 19 31  1  0  0  0  0
 20 26  1  0  0  0  0
 20 32  1  0  0  0  0
 21 33  1  0  0  0  0
 21 34  1  0  0  0  0
 21 35  1  0  0  0  0
 22 36  1  0  0  0  0
 22 37  1  0  0  0  0
 22 38  1  0  0  0  0
 23 27  1  0  0  0  0
 23 40  1  0  0  0  0
 24 28  1  0  0  0  0
 24 41  1  0  0  0  0
 25 26  2  0  0  0  0
 25 42  1  0  0  0  0
 26 43  1  0  0  0  0
 27 28  2  0  0  0  0
 27 44  1  0  0  0  0
 28 45  1  0  0  0  0
M  END
> <PUBCHEM_COMPOUND_CID>
489125

> <PUBCHEM_CONFORMER_RMSD>
0.6

> <PUBCHEM_CONFORMER_DIVERSEORDER>
1

> <PUBCHEM_MMFF94_PARTIAL_CHARGES>
34
1 -0.57
10 0.09
12 -0.15
13 0.09
14 0.26
16 -0.15
17 0.54
18 0.54
19 -0.15
2 -0.57
20 -0.15
23 -0.15
24 -0.15
25 -0.15
26 -0.15
27 -0.15
28 -0.15
3 -0.04
30 0.27
31 0.15
32 0.15
39 0.37
4 -0.05
40 0.15
41 0.15
42 0.15
43 0.15
44 0.15
45 0.15
5 -0.49
6 -0.05
7 -0.01
8 -0.05
9 -0.01

> <PUBCHEM_EFFECTIVE_ROTOR_COUNT>
1.2

> <PUBCHEM_PHARMACOPHORE_FEATURES>
13
1 1 acceptor
1 2 acceptor
1 3 cation
1 4 cation
1 4 donor
1 5 donor
3 14 21 22 hydrophobe
5 3 6 7 11 12 rings
5 4 8 9 15 16 rings
5 5 10 13 17 18 rings
6 11 12 19 20 25 26 rings
6 15 16 23 24 27 28 rings
6 6 7 8 9 10 13 rings

> <PUBCHEM_HEAVY_ATOM_COUNT>
28

> <PUBCHEM_ATOM_DEF_STEREO_COUNT>
0

> <PUBCHEM_ATOM_UDEF_STEREO_COUNT>
0

> <PUBCHEM_BOND_DEF_STEREO_COUNT>
0

> <PUBCHEM_BOND_UDEF_STEREO_COUNT>
0

> <PUBCHEM_ISOTOPIC_ATOM_COUNT>
0

> <PUBCHEM_COMPONENT_COUNT>
1

> <PUBCHEM_CACTVS_TAUTO_COUNT>
12

> <PUBCHEM_CONFORMER_ID>
000776A500000001

> <PUBCHEM_MMFF94_ENERGY>
133.8016

> <PUBCHEM_FEATURE_SELFOVERLAP>
66.439

> <PUBCHEM_SHAPE_FINGERPRINT>
10319926 262 18054768841125433640
10411042 1 17329711436367811630
10675989 125 17686327682519311381
10906281 52 18261693509718675945
10967382 1 18410573989531028835
1100329 8 18194967572028052201
11445158 3 17751366303404342669
11513181 2 18130505211146989455
11578080 2 12345749056034908116
12788726 201 18273222980295133632
12838862 33 18338778092198511781
13140716 1 18339071718011794786
138480 1 17762336912103273678
13911987 19 18335137626452726909
14223421 5 18120935005882477901
14787075 74 18201434817818278021
14790565 3 18410862078789641009
15042514 8 18337109085482515090
15196674 1 18410855473034513473
15927050 60 18412545422443939375
16728300 4 17462819035975681898
19591789 44 18410855507520560123
19930381 70 18337953363914091593
20028762 73 18272645753458820966
20510252 161 18342740697998460048
20600515 1 18268720565540822572
20642791 35 18123477077008541143
20739085 24 18120120319870425601
20775438 99 16043048665947378719
20905425 154 18125724487011903918
21033648 29 18271518814254412449
21267235 1 18410301327864217281
21421861 104 18045501911305248001
22113638 7 18263925599605621812
2334 1 18050568740111842722
23366157 5 17899142611502462394
23402539 116 18342733056871546541
23559900 14 18050558543579718897
266924 87 18265606581434101973
283562 15 18341614771947468689
3178227 256 18265065798434207803
335352 9 18410575089775932022
350125 39 18194121815852938406
352729 6 18410579508954270886
484989 97 17904196276682883607
5265222 85 18193007122143700924
5486654 2 18411141359127442044
59755656 215 18411141299266626638

> <PUBCHEM_SHAPE_MULTIPOLES>
549.55
8.7
5.04
0.72
0.89
2.66
0
-3.06
0
0.1
0
-0.05
-0.44
0

> <PUBCHEM_SHAPE_SELFOVERLAP>
1280.057

> <PUBCHEM_SHAPE_VOLUME>
280.7

> <PUBCHEM_COORDINATE_TYPE>
2
5
10

$$$$
