44410955
  -OEChem-10062122003D

 57 60  0     1  0  0  0  0  0999 V2000
    6.4513   -1.9613   -1.7851 Cl  0  0  0  0  0  0  0  0  0  0  0  0
    3.8648   -0.6646   -2.3837 F   0  0  0  0  0  0  0  0  0  0  0  0
   -2.7720   -0.7515    1.7137 O   0  0  0  0  0  0  0  0  0  0  0  0
   -4.1074    1.8681   -0.6602 O   0  0  0  0  0  0  0  0  0  0  0  0
   -3.4709   -1.3081   -0.7416 N   0  0  2  0  0  0  0  0  0  0  0  0
   -0.8281   -2.0233    1.6362 N   0  0  0  0  0  0  0  0  0  0  0  0
   -0.0181    3.8043    0.8180 N   0  0  0  0  0  0  0  0  0  0  0  0
    2.1544    0.5782   -0.5967 N   0  0  0  0  0  0  0  0  0  0  0  0
    2.0806    2.6705    0.4765 N   0  0  0  0  0  0  0  0  0  0  0  0
   -2.5691   -2.2608   -0.0853 C   0  0  2  0  0  0  0  0  0  0  0  0
   -3.4245   -3.4889    0.2274 C   0  0  0  0  0  0  0  0  0  0  0  0
   -4.5364   -2.1003   -1.3570 C   0  0  0  0  0  0  0  0  0  0  0  0
   -4.8131   -3.1377   -0.2864 C   0  0  0  0  0  0  0  0  0  0  0  0
   -2.7949   -0.4516   -1.7068 C   0  0  0  0  0  0  0  0  0  0  0  0
   -2.0742   -1.6086    1.1650 C   0  0  0  0  0  0  0  0  0  0  0  0
   -2.0635    0.6806   -1.0359 C   0  0  0  0  0  0  0  0  0  0  0  0
   -2.7520    1.7846   -0.5454 C   0  0  0  0  0  0  0  0  0  0  0  0
   -0.6795    0.6212   -0.9051 C   0  0  0  0  0  0  0  0  0  0  0  0
    0.0133    1.6728   -0.2806 C   0  0  0  0  0  0  0  0  0  0  0  0
   -0.2274   -1.4698    2.8431 C   0  0  0  0  0  0  0  0  0  0  0  0
   -0.0345   -3.0426    0.9541 C   0  0  0  0  0  0  0  0  0  0  0  0
   -2.0557    2.8263    0.0746 C   0  0  0  0  0  0  0  0  0  0  0  0
   -0.6709    2.7929    0.2189 C   0  0  0  0  0  0  0  0  0  0  0  0
    1.3958    1.6754   -0.1179 C   0  0  0  0  0  0  0  0  0  0  0  0
   -4.7312    3.0355   -0.1294 C   0  0  0  0  0  0  0  0  0  0  0  0
    1.3219    3.6883    0.9143 C   0  0  0  0  0  0  0  0  0  0  0  0
    3.3600    0.0010   -0.1676 C   0  0  0  0  0  0  0  0  0  0  0  0
    4.2057   -0.6202   -1.0866 C   0  0  0  0  0  0  0  0  0  0  0  0
    3.7111    0.0497    1.1815 C   0  0  0  0  0  0  0  0  0  0  0  0
    5.4026   -1.1927   -0.6563 C   0  0  0  0  0  0  0  0  0  0  0  0
    4.9079   -0.5229    1.6116 C   0  0  0  0  0  0  0  0  0  0  0  0
    5.7537   -1.1442    0.6928 C   0  0  0  0  0  0  0  0  0  0  0  0
   -1.7570   -2.5461   -0.7612 H   0  0  0  0  0  0  0  0  0  0  0  0
   -3.4536   -3.7557    1.2891 H   0  0  0  0  0  0  0  0  0  0  0  0
   -3.0427   -4.3550   -0.3270 H   0  0  0  0  0  0  0  0  0  0  0  0
   -4.1998   -2.5884   -2.2806 H   0  0  0  0  0  0  0  0  0  0  0  0
   -5.4240   -1.4983   -1.5742 H   0  0  0  0  0  0  0  0  0  0  0  0
   -5.3444   -4.0113   -0.6750 H   0  0  0  0  0  0  0  0  0  0  0  0
   -5.4130   -2.7033    0.5229 H   0  0  0  0  0  0  0  0  0  0  0  0
   -3.5304    0.0005   -2.3873 H   0  0  0  0  0  0  0  0  0  0  0  0
   -2.1243   -1.0211   -2.3646 H   0  0  0  0  0  0  0  0  0  0  0  0
   -0.1585   -0.2529   -1.2868 H   0  0  0  0  0  0  0  0  0  0  0  0
   -0.0986   -2.2721    3.5751 H   0  0  0  0  0  0  0  0  0  0  0  0
   -0.8614   -0.6910    3.2745 H   0  0  0  0  0  0  0  0  0  0  0  0
    0.7447   -1.0387    2.5875 H   0  0  0  0  0  0  0  0  0  0  0  0
    0.4491   -2.5838    0.0869 H   0  0  0  0  0  0  0  0  0  0  0  0
   -0.6618   -3.8764    0.6316 H   0  0  0  0  0  0  0  0  0  0  0  0
    0.7338   -3.4355    1.6272 H   0  0  0  0  0  0  0  0  0  0  0  0
   -2.5471    3.7090    0.4740 H   0  0  0  0  0  0  0  0  0  0  0  0
    1.8855    0.2896   -1.5336 H   0  0  0  0  0  0  0  0  0  0  0  0
   -5.8069    2.9334   -0.3077 H   0  0  0  0  0  0  0  0  0  0  0  0
   -4.4089    3.9412   -0.6545 H   0  0  0  0  0  0  0  0  0  0  0  0
   -4.5968    3.1083    0.9552 H   0  0  0  0  0  0  0  0  0  0  0  0
    1.8419    4.5062    1.3981 H   0  0  0  0  0  0  0  0  0  0  0  0
    3.0629    0.5144    1.9196 H   0  0  0  0  0  0  0  0  0  0  0  0
    5.1797   -0.4884    2.6627 H   0  0  0  0  0  0  0  0  0  0  0  0
    6.6828   -1.5869    1.0428 H   0  0  0  0  0  0  0  0  0  0  0  0
  1 30  1  0  0  0  0
  2 28  1  0  0  0  0
  3 15  2  0  0  0  0
  4 17  1  0  0  0  0
  4 25  1  0  0  0  0
  5 10  1  0  0  0  0
  5 12  1  0  0  0  0
  5 14  1  0  0  0  0
  6 15  1  0  0  0  0
  6 20  1  0  0  0  0
  6 21  1  0  0  0  0
  7 23  1  0  0  0  0
  7 26  2  0  0  0  0
  8 24  1  0  0  0  0
  8 27  1  0  0  0  0
  8 50  1  0  0  0  0
  9 24  2  0  0  0  0
  9 26  1  0  0  0  0
 10 11  1  0  0  0  0
 10 15  1  0  0  0  0
 10 33  1  0  0  0  0
 11 13  1  0  0  0  0
 11 34  1  0  0  0  0
 11 35  1  0  0  0  0
 12 13  1  0  0  0  0
 12 36  1  0  0  0  0
 12 37  1  0  0  0  0
 13 38  1  0  0  0  0
 13 39  1  0  0  0  0
 14 16  1  0  0  0  0
 14 40  1  0  0  0  0
 14 41  1  0  0  0  0
 16 17  1  0  0  0  0
 16 18  2  0  0  0  0
 17 22  2  0  0  0  0
 18 19  1  0  0  0  0
 18 42  1  0  0  0  0
 19 23  2  0  0  0  0
 19 24  1  0  0  0  0
 20 43  1  0  0  0  0
 20 44  1  0  0  0  0
 20 45  1  0  0  0  0
 21 46  1  0  0  0  0
 21 47  1  0  0  0  0
 21 48  1  0  0  0  0
 22 23  1  0  0  0  0
 22 49  1  0  0  0  0
 25 51  1  0  0  0  0
 25 52  1  0  0  0  0
 25 53  1  0  0  0  0
 26 54  1  0  0  0  0
 27 28  2  0  0  0  0
 27 29  1  0  0  0  0
 28 30  1  0  0  0  0
 29 31  2  0  0  0  0
 29 55  1  0  0  0  0
 30 32  2  0  0  0  0
 31 32  1  0  0  0  0
 31 56  1  0  0  0  0
 32 57  1  0  0  0  0
M  END
> <PUBCHEM_COMPOUND_CID>
44410955

> <PUBCHEM_CONFORMER_RMSD>
1

> <PUBCHEM_CONFORMER_DIVERSEORDER>
1
214
51
178
11
207
121
28
149
202
192
126
92
216
189
6
151
128
212
146
123
45
215
161
48
101
13
135
29
40
18
197
70
221
5
140
67
129
33
79
47
144
148
191
118
103
200
138
35
156
14
71
38
54
22
163
193
124
56
198
10
76
199
157
44
203
75
219
141
122
150
147
183
173
177
160
187
4
96
143
91
78
55
12
127
68
169
152
9
53
188
100
81
63
165
206
162
159
107
115
77
208
179
170
23
168
26
2
108
213
180
60
114
175
97
88
137
64
166
201
117
41
65
73
164
83
43
27
49
209
204
205
69
185
25
50
30
87
186
80
142
139
181
39
86
174
46
24
217
132
95
105
72
3
112
19
58
84
210
155
211
176
42
167
8
62
182
15
222
32
184
34
154
94
59
99
113
66
171
196
131
52
37
90
145
98
85
172
220
17
133
109
106
20
130
136
134
194
195
218
93
31
61
120
7
119
89
21
116
190
111
16
153
125
102
82
110
104
74
57
36
158

> <PUBCHEM_MMFF94_PARTIAL_CHARGES>
36
1 -0.18
10 0.33
12 0.27
14 0.41
15 0.57
16 -0.14
17 0.08
18 -0.15
2 -0.19
20 0.3
21 0.3
22 -0.15
23 0.31
24 0.41
25 0.28
26 0.47
27 0.1
28 0.19
29 -0.15
3 -0.57
30 0.18
31 -0.15
32 -0.15
4 -0.36
42 0.15
49 0.15
5 -0.81
50 0.4
54 0.15
55 0.15
56 0.15
57 0.15
6 -0.66
7 -0.62
8 -0.6
9 -0.62

> <PUBCHEM_EFFECTIVE_ROTOR_COUNT>
8

> <PUBCHEM_PHARMACOPHORE_FEATURES>
10
1 3 acceptor
1 4 acceptor
1 5 cation
1 8 donor
3 7 9 26 cation
3 8 9 24 cation
5 5 10 11 12 13 rings
6 16 17 18 19 22 23 rings
6 27 28 29 30 31 32 rings
6 7 9 19 23 24 26 rings

> <PUBCHEM_HEAVY_ATOM_COUNT>
32

> <PUBCHEM_ATOM_DEF_STEREO_COUNT>
1

> <PUBCHEM_ATOM_UDEF_STEREO_COUNT>
0

> <PUBCHEM_BOND_DEF_STEREO_COUNT>
0

> <PUBCHEM_BOND_UDEF_STEREO_COUNT>
0

> <PUBCHEM_ISOTOPIC_ATOM_COUNT>
0

> <PUBCHEM_COMPONENT_COUNT>
1

> <PUBCHEM_CACTVS_TAUTO_COUNT>
3

> <PUBCHEM_CONFORMER_ID>
02A5A84B00000001

> <PUBCHEM_MMFF94_ENERGY>
108.9664

> <PUBCHEM_FEATURE_SELFOVERLAP>
50.919

> <PUBCHEM_SHAPE_FINGERPRINT>
10190108 129 18040726874936640331
1100329 8 18410848833426881513
11578080 2 16342271758043401993
11828532 37 17898844923304518275
12363563 72 18412829118360944262
12422481 6 18057910076730678499
12788726 201 18335146439930975654
13140716 1 18341322362115981865
13583140 156 15410626843487035730
140371 6 18129668474261434372
14725015 67 18337095873947094571
14790565 3 17835516025482329617
14866123 147 18410009923640445707
15361156 5 18060414686719592972
15927050 60 18195521498851179967
16752209 62 18113333124543787058
17138139 8 18040426707682184098
17909252 39 18197499743186011064
19311894 1 18341328903778162393
19315092 285 15335711812117779559
19319366 153 17751075808701151315
19611394 137 18341037619755096120
20764821 26 18338536169902255534
20775438 99 17402590335368843823
20832881 197 18263076764382152691
21133410 32 16590589870918163450
21279426 13 18190443017946146663
23536364 44 18191000435939499487
23559900 14 18116701018748379261
3027735 51 18409167684100178979
3178227 256 18265065648121733297
3383291 50 18341330007774304115
4073 2 18342735175218662638
463206 1 18263353690550530306
508706 21 18409456868759580774
5171179 24 18270115845796210385
5265222 85 18041858241498327396
57527585 103 17241351086860837035
9709674 26 18267014132184343973

> <PUBCHEM_SHAPE_MULTIPOLES>
616.5
11.79
4.79
1.85
13.65
1.96
0.41
-7.7
-4.19
-5.06
0.97
1.08
-1.07
1.08

> <PUBCHEM_SHAPE_SELFOVERLAP>
1328.587

> <PUBCHEM_SHAPE_VOLUME>
342.4

> <PUBCHEM_COORDINATE_TYPE>
2
5
10

$$$$
