24905202
  -OEChem-10052115143D

 37 40  0     0  0  0  0  0  0999 V2000
    2.4034    1.0249   -0.0376 N   0  0  0  0  0  0  0  0  0  0  0  0
    1.1164    1.4022    0.0775 N   0  0  0  0  0  0  0  0  0  0  0  0
    3.7347   -0.9919   -0.1877 N   0  0  0  0  0  0  0  0  0  0  0  0
   -2.9152    0.2125    1.7157 N   0  0  0  0  0  0  0  0  0  0  0  0
   -5.0169    0.2361    0.5388 N   0  0  0  0  0  0  0  0  0  0  0  0
    2.3470   -2.9966   -0.1097 N   0  0  0  0  0  0  0  0  0  0  0  0
   -0.0300   -2.9130    0.0900 N   0  0  0  0  0  0  0  0  0  0  0  0
    3.4368    2.0307   -0.1052 C   0  0  0  0  0  0  0  0  0  0  0  0
    1.3062   -0.8746    0.0182 C   0  0  0  0  0  0  0  0  0  0  0  0
    2.5736   -0.3271   -0.0776 C   0  0  0  0  0  0  0  0  0  0  0  0
    0.4534    0.2410    0.1110 C   0  0  0  0  0  0  0  0  0  0  0  0
   -0.9758    0.2396    0.2310 C   0  0  0  0  0  0  0  0  0  0  0  0
    3.4868    2.8732    1.1720 C   0  0  0  0  0  0  0  0  0  0  0  0
    3.2759    2.9212   -1.3397 C   0  0  0  0  0  0  0  0  0  0  0  0
    1.2138   -2.2624   -0.0006 C   0  0  0  0  0  0  0  0  0  0  0  0
   -1.7820    0.2615   -0.9057 C   0  0  0  0  0  0  0  0  0  0  0  0
   -3.1741    0.2591   -0.7223 C   0  0  0  0  0  0  0  0  0  0  0  0
   -1.5825    0.2165    1.4796 C   0  0  0  0  0  0  0  0  0  0  0  0
   -3.6477    0.2344    0.5862 C   0  0  0  0  0  0  0  0  0  0  0  0
   -4.3122    0.2762   -1.5714 C   0  0  0  0  0  0  0  0  0  0  0  0
    3.5203   -2.3254   -0.1952 C   0  0  0  0  0  0  0  0  0  0  0  0
   -5.4316    0.2620   -0.7675 C   0  0  0  0  0  0  0  0  0  0  0  0
    4.3965    1.5078   -0.1957 H   0  0  0  0  0  0  0  0  0  0  0  0
    4.3286    3.5729    1.1406 H   0  0  0  0  0  0  0  0  0  0  0  0
    3.6103    2.2359    2.0546 H   0  0  0  0  0  0  0  0  0  0  0  0
    2.5695    3.4566    1.3088 H   0  0  0  0  0  0  0  0  0  0  0  0
    3.2485    2.3183   -2.2541 H   0  0  0  0  0  0  0  0  0  0  0  0
    4.1134    3.6219   -1.4226 H   0  0  0  0  0  0  0  0  0  0  0  0
    2.3505    3.5065   -1.2995 H   0  0  0  0  0  0  0  0  0  0  0  0
   -1.3560    0.2796   -1.9048 H   0  0  0  0  0  0  0  0  0  0  0  0
   -0.9813    0.1983    2.3865 H   0  0  0  0  0  0  0  0  0  0  0  0
   -4.3175    0.2968   -2.6525 H   0  0  0  0  0  0  0  0  0  0  0  0
    4.4075   -2.9435   -0.2815 H   0  0  0  0  0  0  0  0  0  0  0  0
   -5.6270    0.2210    1.3443 H   0  0  0  0  0  0  0  0  0  0  0  0
   -6.4851    0.2676   -1.0092 H   0  0  0  0  0  0  0  0  0  0  0  0
   -0.8912   -2.3927    0.1707 H   0  0  0  0  0  0  0  0  0  0  0  0
   -0.0524   -3.9238    0.0718 H   0  0  0  0  0  0  0  0  0  0  0  0
  1  2  1  0  0  0  0
  1  8  1  0  0  0  0
  1 10  1  0  0  0  0
  2 11  2  0  0  0  0
  3 10  2  0  0  0  0
  3 21  1  0  0  0  0
  4 18  1  0  0  0  0
  4 19  2  0  0  0  0
  5 19  1  0  0  0  0
  5 22  1  0  0  0  0
  5 34  1  0  0  0  0
  6 15  1  0  0  0  0
  6 21  2  0  0  0  0
  7 15  1  0  0  0  0
  7 36  1  0  0  0  0
  7 37  1  0  0  0  0
  8 13  1  0  0  0  0
  8 14  1  0  0  0  0
  8 23  1  0  0  0  0
  9 10  1  0  0  0  0
  9 11  1  0  0  0  0
  9 15  2  0  0  0  0
 11 12  1  0  0  0  0
 12 16  1  0  0  0  0
 12 18  2  0  0  0  0
 13 24  1  0  0  0  0
 13 25  1  0  0  0  0
 13 26  1  0  0  0  0
 14 27  1  0  0  0  0
 14 28  1  0  0  0  0
 14 29  1  0  0  0  0
 16 17  2  0  0  0  0
 16 30  1  0  0  0  0
 17 19  1  0  0  0  0
 17 20  1  0  0  0  0
 18 31  1  0  0  0  0
 20 22  2  0  0  0  0
 20 32  1  0  0  0  0
 21 33  1  0  0  0  0
 22 35  1  0  0  0  0
M  END
> <PUBCHEM_COMPOUND_CID>
24905202

> <PUBCHEM_CONFORMER_RMSD>
0.6

> <PUBCHEM_CONFORMER_DIVERSEORDER>
2
5
4
3
6
1

> <PUBCHEM_MMFF94_PARTIAL_CHARGES>
26
1 0.31
10 0.11
11 0.23
12 0.05
15 0.41
16 -0.15
18 0.16
19 0.11
2 -0.71
20 -0.15
21 0.47
22 -0.3
3 -0.57
30 0.15
31 0.15
32 0.15
33 0.15
34 0.27
35 0.15
36 0.4
37 0.4
4 -0.57
5 0.03
6 -0.62
7 -0.9
8 0.26

> <PUBCHEM_EFFECTIVE_ROTOR_COUNT>
2

> <PUBCHEM_PHARMACOPHORE_FEATURES>
12
1 2 acceptor
1 5 donor
1 7 cation
1 7 donor
3 1 3 10 cation
3 3 6 21 cation
3 4 5 19 cation
3 8 13 14 hydrophobe
5 1 2 9 10 11 rings
5 5 17 19 20 22 rings
6 3 6 9 10 15 21 rings
6 4 12 16 17 18 19 rings

> <PUBCHEM_HEAVY_ATOM_COUNT>
22

> <PUBCHEM_ATOM_DEF_STEREO_COUNT>
0

> <PUBCHEM_ATOM_UDEF_STEREO_COUNT>
0

> <PUBCHEM_BOND_DEF_STEREO_COUNT>
0

> <PUBCHEM_BOND_UDEF_STEREO_COUNT>
0

> <PUBCHEM_ISOTOPIC_ATOM_COUNT>
0

> <PUBCHEM_COMPONENT_COUNT>
1

> <PUBCHEM_CACTVS_TAUTO_COUNT>
14

> <PUBCHEM_CONFORMER_ID>
017C05F200000002

> <PUBCHEM_MMFF94_ENERGY>
45.9172

> <PUBCHEM_FEATURE_SELFOVERLAP>
61.289

> <PUBCHEM_SHAPE_FINGERPRINT>
10366900 7 17896046459451225399
10411042 1 17906451031059729750
11471102 20 18409731733759763518
11582403 64 17173725735958113909
11725454 13 17605531418575446913
12236239 1 17703789185076236363
12403259 415 17894918421214872945
12616971 3 18060421283751805577
12730499 353 18336835289690811505
13009979 54 17416413047744528810
13134695 92 18189618233437430046
13140716 1 18338514261564339658
13533116 47 18342460335718413609
13631057 29 17769362057429488095
13862211 1 18194964046451285014
13911987 19 18120102924715352381
13955234 65 18411697681898521890
15342168 16 18190182467201152749
15375358 24 17749385992610284701
15842332 3 17702679756432252049
15961568 22 16805610329452754244
16752209 62 16486969554100692565
17134986 127 18118132587599611244
17138139 8 17556549344174571855
17818456 19 17270892636737841129
1813 80 17914346675666443006
18222031 100 18198903609324129670
19784866 34 18199462345302658616
200 152 18272365318269961579
204376 136 18265054810942623380
20554085 129 17701802488394084312
20645477 70 18335137579123196155
21065201 7 16587747521116037219
21120745 212 11014163740843987090
2255824 54 18342178834629384526
23557571 272 17168440319623870163
23559900 14 16588309358520071058
23598291 2 17917163696996449513
2748010 2 18193573374536647186
283562 15 17760936143702555970
312423 11 18130801009812978337
42630746 31 18341888602298389476
4340502 62 18341608282414693459
469060 322 17758685829451449347
474 4 18270958054844795480
495365 180 18408598180010268000
5104073 3 18408887343574343235
5281201 14 18260546676125239973
6034566 193 17756154731803485780
633830 44 18057629653350814529
7364860 26 18413106143814820072
7471813 234 18059568027941963752
7615 1 17917154892492763201
77492 1 17703793587443991227
8272917 22 18412267203320580933
84936 182 18202561808699789264

> <PUBCHEM_SHAPE_MULTIPOLES>
417.88
9.5
3.01
1.21
9.38
0.79
0.12
-3.05
-1.43
-5.73
-0.21
0.85
-0.55
0.15

> <PUBCHEM_SHAPE_SELFOVERLAP>
939.434

> <PUBCHEM_SHAPE_VOLUME>
217.2

> <PUBCHEM_COORDINATE_TYPE>
2
5
10

$$$$
