135533388
  -OEChem-10052115183D

 36 38  0     0  0  0  0  0  0999 V2000
    1.5466    0.3868   -0.4390 S   0  0  0  0  0  0  0  0  0  0  0  0
   -5.4619    1.2926    1.1656 O   0  0  0  0  0  0  0  0  0  0  0  0
   -1.4213   -1.6095    0.9286 O   0  0  0  0  0  0  0  0  0  0  0  0
    0.8966   -1.5393    1.1231 N   0  0  0  0  0  0  0  0  0  0  0  0
    3.2108   -1.1277    1.0256 N   0  0  0  0  0  0  0  0  0  0  0  0
   -2.5532    0.3167   -0.8281 C   0  0  0  0  0  0  0  0  0  0  0  0
   -0.1285    0.0014   -0.2960 C   0  0  0  0  0  0  0  0  0  0  0  0
   -1.1366    0.6276   -0.9372 C   0  0  0  0  0  0  0  0  0  0  0  0
   -3.3375    0.9617    0.1282 C   0  0  0  0  0  0  0  0  0  0  0  0
   -0.3336   -1.1317    0.6428 C   0  0  0  0  0  0  0  0  0  0  0  0
    2.0013   -0.8696    0.6754 C   0  0  0  0  0  0  0  0  0  0  0  0
   -3.1275   -0.6268   -1.6801 C   0  0  0  0  0  0  0  0  0  0  0  0
   -4.6961    0.6634    0.2327 C   0  0  0  0  0  0  0  0  0  0  0  0
   -4.4860   -0.9254   -1.5755 C   0  0  0  0  0  0  0  0  0  0  0  0
   -5.2705   -0.2801   -0.6193 C   0  0  0  0  0  0  0  0  0  0  0  0
    4.2052   -0.3171    0.4465 C   0  0  0  0  0  0  0  0  0  0  0  0
    4.5978    0.8630    1.0783 C   0  0  0  0  0  0  0  0  0  0  0  0
    4.7974   -0.6933   -0.7591 C   0  0  0  0  0  0  0  0  0  0  0  0
    5.5828    1.6669    0.5044 C   0  0  0  0  0  0  0  0  0  0  0  0
    5.7823    0.1107   -1.3330 C   0  0  0  0  0  0  0  0  0  0  0  0
    6.1752    1.2906   -0.7011 C   0  0  0  0  0  0  0  0  0  0  0  0
   -6.8433    0.9392    1.2170 C   0  0  0  0  0  0  0  0  0  0  0  0
   -0.9119    1.4528   -1.6106 H   0  0  0  0  0  0  0  0  0  0  0  0
   -2.8985    1.6989    0.7971 H   0  0  0  0  0  0  0  0  0  0  0  0
   -2.5295   -1.1381   -2.4306 H   0  0  0  0  0  0  0  0  0  0  0  0
    0.9752   -2.3066    1.7824 H   0  0  0  0  0  0  0  0  0  0  0  0
   -4.9322   -1.6604   -2.2392 H   0  0  0  0  0  0  0  0  0  0  0  0
   -6.3181   -0.5597   -0.5929 H   0  0  0  0  0  0  0  0  0  0  0  0
    4.1439    1.1641    2.0189 H   0  0  0  0  0  0  0  0  0  0  0  0
    4.4998   -1.6117   -1.2585 H   0  0  0  0  0  0  0  0  0  0  0  0
    5.8888    2.5855    0.9964 H   0  0  0  0  0  0  0  0  0  0  0  0
    6.2436   -0.1822   -2.2716 H   0  0  0  0  0  0  0  0  0  0  0  0
    6.9422    1.9164   -1.1478 H   0  0  0  0  0  0  0  0  0  0  0  0
   -7.2997    1.5345    2.0146 H   0  0  0  0  0  0  0  0  0  0  0  0
   -6.9796   -0.1137    1.4862 H   0  0  0  0  0  0  0  0  0  0  0  0
   -7.3604    1.2005    0.2874 H   0  0  0  0  0  0  0  0  0  0  0  0
  1  7  1  0  0  0  0
  1 11  1  0  0  0  0
  2 13  1  0  0  0  0
  2 22  1  0  0  0  0
  3 10  2  0  0  0  0
  4 10  1  0  0  0  0
  4 11  1  0  0  0  0
  4 26  1  0  0  0  0
  5 11  2  0  0  0  0
  5 16  1  0  0  0  0
  6  8  1  0  0  0  0
  6  9  2  0  0  0  0
  6 12  1  0  0  0  0
  7  8  2  3  0  0  0
  7 10  1  0  0  0  0
  8 23  1  0  0  0  0
  9 13  1  0  0  0  0
  9 24  1  0  0  0  0
 12 14  2  0  0  0  0
 12 25  1  0  0  0  0
 13 15  2  0  0  0  0
 14 15  1  0  0  0  0
 14 27  1  0  0  0  0
 15 28  1  0  0  0  0
 16 17  2  0  0  0  0
 16 18  1  0  0  0  0
 17 19  1  0  0  0  0
 17 29  1  0  0  0  0
 18 20  2  0  0  0  0
 18 30  1  0  0  0  0
 19 21  2  0  0  0  0
 19 31  1  0  0  0  0
 20 21  1  0  0  0  0
 20 32  1  0  0  0  0
 21 33  1  0  0  0  0
 22 34  1  0  0  0  0
 22 35  1  0  0  0  0
 22 36  1  0  0  0  0
M  END
> <PUBCHEM_COMPOUND_CID>
135533388

> <PUBCHEM_CONFORMER_RMSD>
0.6

> <PUBCHEM_CONFORMER_DIVERSEORDER>
2
3
4
1

> <PUBCHEM_MMFF94_PARTIAL_CHARGES>
33
1 -0.24
10 0.62
11 0.65
12 -0.15
13 0.08
14 -0.15
15 -0.15
16 0.18
17 -0.15
18 -0.15
19 -0.15
2 -0.36
20 -0.15
21 -0.15
22 0.28
23 0.15
24 0.15
25 0.15
26 0.37
27 0.15
28 0.15
29 0.15
3 -0.57
30 0.15
31 0.15
32 0.15
33 0.15
4 -0.49
5 -0.63
6 0.03
7 0.12
8 -0.18
9 -0.15

> <PUBCHEM_EFFECTIVE_ROTOR_COUNT>
3.4

> <PUBCHEM_PHARMACOPHORE_FEATURES>
6
1 2 acceptor
1 3 acceptor
1 4 donor
5 1 4 7 10 11 rings
6 16 17 18 19 20 21 rings
6 6 9 12 13 14 15 rings

> <PUBCHEM_HEAVY_ATOM_COUNT>
22

> <PUBCHEM_ATOM_DEF_STEREO_COUNT>
0

> <PUBCHEM_ATOM_UDEF_STEREO_COUNT>
0

> <PUBCHEM_BOND_DEF_STEREO_COUNT>
0

> <PUBCHEM_BOND_UDEF_STEREO_COUNT>
1

> <PUBCHEM_ISOTOPIC_ATOM_COUNT>
0

> <PUBCHEM_COMPONENT_COUNT>
1

> <PUBCHEM_CACTVS_TAUTO_COUNT>
-1

> <PUBCHEM_CONFORMER_ID>
0814134C00000002

> <PUBCHEM_MMFF94_ENERGY>
72.8574

> <PUBCHEM_FEATURE_SELFOVERLAP>
30.447

> <PUBCHEM_SHAPE_FINGERPRINT>
10 15 16008752437470870652
106641 1 17095532824277420657
11128504 68 18413102871018098766
11646440 116 17894352185590858868
11724838 91 15719400572528326078
11796584 16 15913325801895156894
12236239 1 18343863307986266229
12403259 118 14923940132996052798
12616971 3 18337094671340323562
12670543 26 14045744802849612217
12730499 353 18260271820062553266
12916748 109 17894912910634805724
13533116 47 18336546015533902986
13668630 136 10303809878474214169
13914758 101 9367353622221971883
13955234 65 18041834009783668506
14251752 14 16200156469173483856
14251764 75 16953400159305265428
14528608 73 18342170094534136222
146900 427 18186799171296097480
14840074 17 18260265252608690911
14848160 23 14273731841614433200
14933364 13 17703793625777242177
15183329 4 15841559552220385896
15575132 122 18338231566595747557
15788980 27 14189569749741223124
17834072 8 14477241556842981177
17844677 252 16988560246857109944
17857418 61 9511465524146699436
18785283 64 16588883397963169444
190975 80 16660938754840016009
200 152 9655574123737396507
20567600 234 14779555612253608830
21033648 29 18340766065714989176
21315764 119 16845584101625879644
21623969 137 17095244709017240321
220451 1 18413670201368897439
22061861 79 14261350258443743524
22079108 93 18113901563048297792
22149856 69 17096101173405705217
22224240 67 17894635851264140931
2297311 6 17060617824232009725
23081809 10 18341322336219103391
23175994 123 13973676269841425651
23198884 109 18131634490849818463
23536379 177 17561083605272118196
23569943 247 18193838133185060018
3004659 81 15841555167881592518
3472631 163 17750239261415896652
34797466 226 17489023876709524468
3545911 37 17603304843690097630
4058900 60 16558203613724052367
4073 2 18202001079371008382
4340502 62 14851603271916169208
5104073 3 17895185662801743466
5265222 85 16772665701704917428
53794403 172 17897732200457437316
542803 24 18272930522564183636
543368 44 18339917211998588053
5758199 1 18333737909859241801
59682541 35 16805896181153976377
59755656 215 13470416543233436852
59755656 520 18408605859755028811
7495541 125 14923950058696810388
8988823 20 7925621190618013902

> <PUBCHEM_SHAPE_MULTIPOLES>
434.9
17.08
1.48
1.41
0.01
0.18
0.46
5.02
-4.39
-1.21
-0.23
0.97
-0.19
-0.6

> <PUBCHEM_SHAPE_SELFOVERLAP>
935.968

> <PUBCHEM_SHAPE_VOLUME>
240.2

> <PUBCHEM_COORDINATE_TYPE>
2
5
10

$$$$
