25012088
  -OEChem-10052115183D

 73 78  0     0  0  0  0  0  0999 V2000
   -4.9868   -0.6121   -1.0476 O   0  0  0  0  0  0  0  0  0  0  0  0
    5.0459    0.2499   -0.2829 O   0  0  0  0  0  0  0  0  0  0  0  0
   -8.5646   -0.3719   -0.2238 N   0  0  0  0  0  0  0  0  0  0  0  0
   -0.2438   -1.4690    0.5977 N   0  0  0  0  0  0  0  0  0  0  0  0
   -0.4936    2.5515   -0.3521 N   0  0  0  0  0  0  0  0  0  0  0  0
    0.7591    0.6539    0.4457 N   0  0  0  0  0  0  0  0  0  0  0  0
    4.0787   -4.8533    0.2799 N   0  0  0  0  0  0  0  0  0  0  0  0
    5.4544    2.5164    0.1966 N   0  0  0  0  0  0  0  0  0  0  0  0
    4.8134   -4.3494   -0.7257 N   0  0  0  0  0  0  0  0  0  0  0  0
   -9.6473   -1.3541   -0.1754 C   0  0  0  0  0  0  0  0  0  0  0  0
   -8.6599    0.3607    1.0385 C   0  0  0  0  0  0  0  0  0  0  0  0
  -10.8070   -0.5554    0.4013 C   0  0  0  0  0  0  0  0  0  0  0  0
  -10.1581    0.5736    1.1961 C   0  0  0  0  0  0  0  0  0  0  0  0
   -7.2607   -0.9912   -0.4097 C   0  0  0  0  0  0  0  0  0  0  0  0
   -6.2456    0.0307   -0.8966 C   0  0  0  0  0  0  0  0  0  0  0  0
   -3.8714    0.1649   -0.8730 C   0  0  0  0  0  0  0  0  0  0  0  0
   -2.6944   -0.3970   -0.3886 C   0  0  0  0  0  0  0  0  0  0  0  0
   -1.5535    0.4049   -0.2116 C   0  0  0  0  0  0  0  0  0  0  0  0
   -3.9090    1.5208   -1.1789 C   0  0  0  0  0  0  0  0  0  0  0  0
   -1.5790    1.7754   -0.5172 C   0  0  0  0  0  0  0  0  0  0  0  0
   -0.3460   -0.0944    0.2684 C   0  0  0  0  0  0  0  0  0  0  0  0
   -2.7703    2.3116   -1.0001 C   0  0  0  0  0  0  0  0  0  0  0  0
    0.6164    1.9487    0.1204 C   0  0  0  0  0  0  0  0  0  0  0  0
    0.8308   -2.3719    0.5715 C   0  0  0  0  0  0  0  0  0  0  0  0
    1.7744    2.7861    0.2946 C   0  0  0  0  0  0  0  0  0  0  0  0
    1.8552   -2.1954   -0.3670 C   0  0  0  0  0  0  0  0  0  0  0  0
    2.9222   -3.1092   -0.3756 C   0  0  0  0  0  0  0  0  0  0  0  0
    2.9307   -4.1549    0.5408 C   0  0  0  0  0  0  0  0  0  0  0  0
    0.8644   -3.4309    1.4805 C   0  0  0  0  0  0  0  0  0  0  0  0
    3.0531    2.2450    0.1613 C   0  0  0  0  0  0  0  0  0  0  0  0
    4.1748    3.0563    0.3312 C   0  0  0  0  0  0  0  0  0  0  0  0
    1.9196   -4.3489    1.4845 C   0  0  0  0  0  0  0  0  0  0  0  0
    1.6176    4.1385    0.5979 C   0  0  0  0  0  0  0  0  0  0  0  0
    4.0180    4.4088    0.6345 C   0  0  0  0  0  0  0  0  0  0  0  0
    2.7393    4.9499    0.7679 C   0  0  0  0  0  0  0  0  0  0  0  0
    4.1066   -3.2886   -1.1220 C   0  0  0  0  0  0  0  0  0  0  0  0
    7.3251    1.0267   -0.1563 C   0  0  0  0  0  0  0  0  0  0  0  0
    5.8109    1.1914   -0.1027 C   0  0  0  0  0  0  0  0  0  0  0  0
    7.7822   -0.3943   -0.4782 C   0  0  0  0  0  0  0  0  0  0  0  0
    9.2982   -0.5236   -0.5245 C   0  0  0  0  0  0  0  0  0  0  0  0
   -9.8876   -1.7548   -1.1652 H   0  0  0  0  0  0  0  0  0  0  0  0
   -9.4045   -2.1910    0.4921 H   0  0  0  0  0  0  0  0  0  0  0  0
   -8.2815   -0.2280    1.8841 H   0  0  0  0  0  0  0  0  0  0  0  0
   -8.1292    1.3173    1.0141 H   0  0  0  0  0  0  0  0  0  0  0  0
  -11.4488   -1.1786    1.0322 H   0  0  0  0  0  0  0  0  0  0  0  0
  -11.4277   -0.1360   -0.3993 H   0  0  0  0  0  0  0  0  0  0  0  0
  -10.4603    1.5415    0.7788 H   0  0  0  0  0  0  0  0  0  0  0  0
  -10.4584    0.5532    2.2486 H   0  0  0  0  0  0  0  0  0  0  0  0
   -6.9023   -1.4980    0.4960 H   0  0  0  0  0  0  0  0  0  0  0  0
   -7.3238   -1.7758   -1.1761 H   0  0  0  0  0  0  0  0  0  0  0  0
   -6.1843    0.8414   -0.1599 H   0  0  0  0  0  0  0  0  0  0  0  0
   -6.5554    0.4436   -1.8643 H   0  0  0  0  0  0  0  0  0  0  0  0
   -2.6902   -1.4605   -0.1648 H   0  0  0  0  0  0  0  0  0  0  0  0
   -4.7943    2.0006   -1.5857 H   0  0  0  0  0  0  0  0  0  0  0  0
   -2.8234    3.3690   -1.2525 H   0  0  0  0  0  0  0  0  0  0  0  0
   -1.0379   -1.8049    1.1358 H   0  0  0  0  0  0  0  0  0  0  0  0
    1.8369   -1.3841   -1.0883 H   0  0  0  0  0  0  0  0  0  0  0  0
    0.0631   -3.5572    2.2059 H   0  0  0  0  0  0  0  0  0  0  0  0
    3.1284    1.1971   -0.0915 H   0  0  0  0  0  0  0  0  0  0  0  0
    1.9476   -5.1719    2.1899 H   0  0  0  0  0  0  0  0  0  0  0  0
    0.6351    4.5885    0.7186 H   0  0  0  0  0  0  0  0  0  0  0  0
    4.8832    5.0529    0.7700 H   0  0  0  0  0  0  0  0  0  0  0  0
    2.6175    6.0025    1.0064 H   0  0  0  0  0  0  0  0  0  0  0  0
    4.4835   -2.6878   -1.9378 H   0  0  0  0  0  0  0  0  0  0  0  0
    4.4188   -5.6821    0.7515 H   0  0  0  0  0  0  0  0  0  0  0  0
    6.2189    3.1749    0.3314 H   0  0  0  0  0  0  0  0  0  0  0  0
    7.7323    1.3334    0.8149 H   0  0  0  0  0  0  0  0  0  0  0  0
    7.7130    1.7186   -0.9137 H   0  0  0  0  0  0  0  0  0  0  0  0
    7.3652   -0.7062   -1.4435 H   0  0  0  0  0  0  0  0  0  0  0  0
    7.3855   -1.0885    0.2725 H   0  0  0  0  0  0  0  0  0  0  0  0
    9.7226    0.1301   -1.2931 H   0  0  0  0  0  0  0  0  0  0  0  0
    9.5841   -1.5540   -0.7574 H   0  0  0  0  0  0  0  0  0  0  0  0
    9.7427   -0.2557    0.4392 H   0  0  0  0  0  0  0  0  0  0  0  0
  1 15  1  0  0  0  0
  1 16  1  0  0  0  0
  2 38  2  0  0  0  0
  3 10  1  0  0  0  0
  3 11  1  0  0  0  0
  3 14  1  0  0  0  0
  4 21  1  0  0  0  0
  4 24  1  0  0  0  0
  4 56  1  0  0  0  0
  5 20  1  0  0  0  0
  5 23  2  0  0  0  0
  6 21  2  0  0  0  0
  6 23  1  0  0  0  0
  7  9  1  0  0  0  0
  7 28  1  0  0  0  0
  7 65  1  0  0  0  0
  8 31  1  0  0  0  0
  8 38  1  0  0  0  0
  8 66  1  0  0  0  0
  9 36  2  0  0  0  0
 10 12  1  0  0  0  0
 10 41  1  0  0  0  0
 10 42  1  0  0  0  0
 11 13  1  0  0  0  0
 11 43  1  0  0  0  0
 11 44  1  0  0  0  0
 12 13  1  0  0  0  0
 12 45  1  0  0  0  0
 12 46  1  0  0  0  0
 13 47  1  0  0  0  0
 13 48  1  0  0  0  0
 14 15  1  0  0  0  0
 14 49  1  0  0  0  0
 14 50  1  0  0  0  0
 15 51  1  0  0  0  0
 15 52  1  0  0  0  0
 16 17  2  0  0  0  0
 16 19  1  0  0  0  0
 17 18  1  0  0  0  0
 17 53  1  0  0  0  0
 18 20  2  0  0  0  0
 18 21  1  0  0  0  0
 19 22  2  0  0  0  0
 19 54  1  0  0  0  0
 20 22  1  0  0  0  0
 22 55  1  0  0  0  0
 23 25  1  0  0  0  0
 24 26  2  0  0  0  0
 24 29  1  0  0  0  0
 25 30  2  0  0  0  0
 25 33  1  0  0  0  0
 26 27  1  0  0  0  0
 26 57  1  0  0  0  0
 27 28  2  0  0  0  0
 27 36  1  0  0  0  0
 28 32  1  0  0  0  0
 29 32  2  0  0  0  0
 29 58  1  0  0  0  0
 30 31  1  0  0  0  0
 30 59  1  0  0  0  0
 31 34  2  0  0  0  0
 32 60  1  0  0  0  0
 33 35  2  0  0  0  0
 33 61  1  0  0  0  0
 34 35  1  0  0  0  0
 34 62  1  0  0  0  0
 35 63  1  0  0  0  0
 36 64  1  0  0  0  0
 37 38  1  0  0  0  0
 37 39  1  0  0  0  0
 37 67  1  0  0  0  0
 37 68  1  0  0  0  0
 39 40  1  0  0  0  0
 39 69  1  0  0  0  0
 39 70  1  0  0  0  0
 40 71  1  0  0  0  0
 40 72  1  0  0  0  0
 40 73  1  0  0  0  0
M  END
> <PUBCHEM_COMPOUND_CID>
25012088

> <PUBCHEM_CONFORMER_RMSD>
1.2

> <PUBCHEM_CONFORMER_DIVERSEORDER>
2
8
87
62
152
96
17
46
117
105
30
40
122
44
94
72
57
78
153
49
124
147
120
54
22
97
34
127
71
106
50
134
31
108
55
128
137
100
83
77
68
123
20
6
69
24
113
64
89
41
86
139
149
26
32
110
102
132
99
145
29
135
115
5
48
65
92
138
23
111
125
93
43
116
154
151
143
75
140
131
119
47
63
53
39
129
58
76
142
88
95
112
59
45
136
12
37
70
28
7
91
61
35
85
130
9
3
118
133
60
73
51
13
42
18
98
144
36
14
114
11
33
25
107
38
148
90
66
67
15
80
4
84
101
56
1
19
150
21
141
10
27
82
79
52
146
103
16
81
104
109
121
74
126

> <PUBCHEM_MMFF94_PARTIAL_CHARGES>
47
1 -0.36
10 0.27
11 0.27
14 0.27
15 0.28
16 0.08
17 -0.15
19 -0.15
2 -0.57
20 0.31
21 0.41
22 -0.15
23 0.62
24 0.1
26 -0.15
28 -0.15
29 -0.15
3 -0.81
30 -0.15
31 0.12
32 -0.15
33 -0.15
34 -0.15
35 -0.15
36 0.14
37 0.06
38 0.57
4 -0.6
5 -0.62
53 0.15
54 0.15
55 0.15
56 0.4
57 0.15
58 0.15
59 0.15
6 -0.62
60 0.15
61 0.15
62 0.15
63 0.15
64 0.15
65 0.27
66 0.37
7 0.3
8 -0.55
9 -0.71

> <PUBCHEM_EFFECTIVE_ROTOR_COUNT>
12

> <PUBCHEM_PHARMACOPHORE_FEATURES>
16
1 1 acceptor
1 2 acceptor
1 3 cation
1 4 donor
1 40 hydrophobe
1 7 donor
1 8 donor
1 9 acceptor
3 4 6 21 cation
3 5 6 23 cation
5 3 10 11 12 13 rings
5 7 9 27 28 36 rings
6 16 17 18 19 20 22 rings
6 24 26 27 28 29 32 rings
6 25 30 31 33 34 35 rings
6 5 6 18 20 21 23 rings

> <PUBCHEM_HEAVY_ATOM_COUNT>
40

> <PUBCHEM_ATOM_DEF_STEREO_COUNT>
0

> <PUBCHEM_ATOM_UDEF_STEREO_COUNT>
0

> <PUBCHEM_BOND_DEF_STEREO_COUNT>
0

> <PUBCHEM_BOND_UDEF_STEREO_COUNT>
0

> <PUBCHEM_ISOTOPIC_ATOM_COUNT>
0

> <PUBCHEM_COMPONENT_COUNT>
1

> <PUBCHEM_CACTVS_TAUTO_COUNT>
12

> <PUBCHEM_CONFORMER_ID>
017DA77800000002

> <PUBCHEM_MMFF94_ENERGY>
119.3501

> <PUBCHEM_FEATURE_SELFOVERLAP>
81.462

> <PUBCHEM_SHAPE_FINGERPRINT>
10050765 1 18338230454732117093
10190108 129 18334573573130534093
10411042 1 18195808462279532606
10580692 12 18412544289816940253
10653451 467 18260833734395573538
11135926 11 18337376254344909567
11411753 3 17968647243574828853
11578080 2 17315895694638276133
12202916 173 18272367573855773350
12522641 24 18131066073962510777
13165054 160 18342449392131707464
13540713 4 17969765429551713269
14725015 67 18411976971533859664
14784336 7 17610050171175265722
15264996 151 18189327975600349546
15328684 2 17346609539460811475
15328829 1 17632865235119332785
15351339 4 18263359197510876674
15538507 32 18410012113473211375
15890870 6 18334860520449194870
15927050 60 18268422628598018487
16067689 302 18341333301766762054
16664035 1 18413105087538650552
19315958 150 18335703884748855147
20156587 191 18261947450446237413
20505436 4 17916020360292421565
21344244 246 18410009893459759974
21781055 127 16271659906195969899
21792965 39 18341619269548412631
22311459 1 18410289241747281044
22899556 105 18125172537499220822
3178227 256 18410289250426964505
3298306 158 18410007750423748444
44344687 77 18341615880238279247
4516262 110 18267009735129746381
5265222 85 18262523727598905596
5385378 56 18339074990998706097
6700243 42 17268360414562962950

> <PUBCHEM_SHAPE_MULTIPOLES>
776.58
27.32
6.63
1.07
67.82
2.05
0.09
3.92
0.19
-14.75
1.88
0.62
0.36
1.08

> <PUBCHEM_SHAPE_SELFOVERLAP>
1703.447

> <PUBCHEM_SHAPE_VOLUME>
420.4

> <PUBCHEM_COORDINATE_TYPE>
2
5
10

$$$$
