49830680
  -OEChem-10052115193D

 35 37  0     0  0  0  0  0  0999 V2000
   -7.6743    1.5042    0.0007 Cl  0  0  0  0  0  0  0  0  0  0  0  0
    6.7829   -0.7828    0.0016 F   0  0  0  0  0  0  0  0  0  0  0  0
    5.2047   -1.8144    1.0846 F   0  0  0  0  0  0  0  0  0  0  0  0
    5.2066   -1.8144   -1.0842 F   0  0  0  0  0  0  0  0  0  0  0  0
    0.7983   -1.1606   -0.0008 O   0  0  0  0  0  0  0  0  0  0  0  0
   -1.0000    0.3395   -0.0001 N   0  0  0  0  0  0  0  0  0  0  0  0
   -4.2739   -2.2620    0.0001 N   0  0  0  0  0  0  0  0  0  0  0  0
    1.1582    1.1501   -0.0003 N   0  0  0  0  0  0  0  0  0  0  0  0
    3.2921    0.1010   -0.0008 N   0  0  0  0  0  0  0  0  0  0  0  0
   -3.4251   -0.0067    0.0000 C   0  0  0  0  0  0  0  0  0  0  0  0
   -2.1156   -0.5060   -0.0001 C   0  0  0  0  0  0  0  0  0  0  0  0
   -4.4890   -0.9329    0.0002 C   0  0  0  0  0  0  0  0  0  0  0  0
   -3.6862    1.3740   -0.0003 C   0  0  0  0  0  0  0  0  0  0  0  0
   -1.8909   -1.8751   -0.0004 C   0  0  0  0  0  0  0  0  0  0  0  0
   -5.7897   -0.4363    0.0006 C   0  0  0  0  0  0  0  0  0  0  0  0
   -4.9968    1.8429   -0.0003 C   0  0  0  0  0  0  0  0  0  0  0  0
   -6.0495    0.9364    0.0004 C   0  0  0  0  0  0  0  0  0  0  0  0
   -2.9951   -2.7030   -0.0004 C   0  0  0  0  0  0  0  0  0  0  0  0
    0.3691   -0.0113   -0.0004 C   0  0  0  0  0  0  0  0  0  0  0  0
    2.5699    1.2438   -0.0005 C   0  0  0  0  0  0  0  0  0  0  0  0
    4.6369    0.2405   -0.0005 C   0  0  0  0  0  0  0  0  0  0  0  0
    3.1260    2.5130    0.0002 C   0  0  0  0  0  0  0  0  0  0  0  0
    5.2898    1.4625   -0.0001 C   0  0  0  0  0  0  0  0  0  0  0  0
    4.5127    2.6156    0.0004 C   0  0  0  0  0  0  0  0  0  0  0  0
    5.4389   -1.0180    0.0004 C   0  0  0  0  0  0  0  0  0  0  0  0
   -2.9040    2.1259   -0.0006 H   0  0  0  0  0  0  0  0  0  0  0  0
   -1.1749    1.3372    0.0002 H   0  0  0  0  0  0  0  0  0  0  0  0
   -0.9342   -2.3700   -0.0006 H   0  0  0  0  0  0  0  0  0  0  0  0
   -6.6225   -1.1386    0.0009 H   0  0  0  0  0  0  0  0  0  0  0  0
   -5.1805    2.9140   -0.0005 H   0  0  0  0  0  0  0  0  0  0  0  0
   -2.8826   -3.7824   -0.0007 H   0  0  0  0  0  0  0  0  0  0  0  0
    0.6613    2.0373    0.0001 H   0  0  0  0  0  0  0  0  0  0  0  0
    2.5151    3.4097    0.0006 H   0  0  0  0  0  0  0  0  0  0  0  0
    6.3712    1.5420    0.0002 H   0  0  0  0  0  0  0  0  0  0  0  0
    4.9869    3.5925    0.0009 H   0  0  0  0  0  0  0  0  0  0  0  0
  1 17  1  0  0  0  0
  2 25  1  0  0  0  0
  3 25  1  0  0  0  0
  4 25  1  0  0  0  0
  5 19  2  0  0  0  0
  6 11  1  0  0  0  0
  6 19  1  0  0  0  0
  6 27  1  0  0  0  0
  7 12  2  0  0  0  0
  7 18  1  0  0  0  0
  8 19  1  0  0  0  0
  8 20  1  0  0  0  0
  8 32  1  0  0  0  0
  9 20  1  0  0  0  0
  9 21  2  0  0  0  0
 10 11  2  0  0  0  0
 10 12  1  0  0  0  0
 10 13  1  0  0  0  0
 11 14  1  0  0  0  0
 12 15  1  0  0  0  0
 13 16  2  0  0  0  0
 13 26  1  0  0  0  0
 14 18  2  0  0  0  0
 14 28  1  0  0  0  0
 15 17  2  0  0  0  0
 15 29  1  0  0  0  0
 16 17  1  0  0  0  0
 16 30  1  0  0  0  0
 18 31  1  0  0  0  0
 20 22  2  0  0  0  0
 21 23  1  0  0  0  0
 21 25  1  0  0  0  0
 22 24  1  0  0  0  0
 22 33  1  0  0  0  0
 23 24  2  0  0  0  0
 23 34  1  0  0  0  0
 24 35  1  0  0  0  0
M  END
> <PUBCHEM_COMPOUND_CID>
49830680

> <PUBCHEM_CONFORMER_RMSD>
0.8

> <PUBCHEM_CONFORMER_DIVERSEORDER>
1
23
18
17
20
13
11
21
4
10
7
5
26
8
14
9
25
15
3
19
12
2
24
16
22
6

> <PUBCHEM_MMFF94_PARTIAL_CHARGES>
34
1 -0.18
11 0.12
12 0.31
13 -0.15
14 -0.15
15 -0.15
16 -0.15
17 0.18
18 0.16
19 0.69
2 -0.34
20 0.43
21 0.17
22 -0.15
23 -0.15
24 -0.15
25 1.16
26 0.15
27 0.37
28 0.15
29 0.15
3 -0.34
30 0.15
31 0.15
32 0.37
33 0.15
34 0.15
35 0.15
4 -0.34
5 -0.57
6 -0.55
7 -0.62
8 -0.55
9 -0.62

> <PUBCHEM_EFFECTIVE_ROTOR_COUNT>
5

> <PUBCHEM_PHARMACOPHORE_FEATURES>
8
1 5 acceptor
1 6 donor
1 7 acceptor
1 8 donor
1 9 acceptor
6 10 12 13 15 16 17 rings
6 7 10 11 12 14 18 rings
6 9 20 21 22 23 24 rings

> <PUBCHEM_HEAVY_ATOM_COUNT>
25

> <PUBCHEM_ATOM_DEF_STEREO_COUNT>
0

> <PUBCHEM_ATOM_UDEF_STEREO_COUNT>
0

> <PUBCHEM_BOND_DEF_STEREO_COUNT>
0

> <PUBCHEM_BOND_UDEF_STEREO_COUNT>
0

> <PUBCHEM_ISOTOPIC_ATOM_COUNT>
0

> <PUBCHEM_COMPONENT_COUNT>
1

> <PUBCHEM_CACTVS_TAUTO_COUNT>
11

> <PUBCHEM_CONFORMER_ID>
02F85B1800000001

> <PUBCHEM_MMFF94_ENERGY>
70.0254

> <PUBCHEM_FEATURE_SELFOVERLAP>
40.681

> <PUBCHEM_SHAPE_FINGERPRINT>
10595046 47 18193838364848523308
10835480 77 18271239529674228848
11315181 36 17561366201398849601
11405975 8 18410011065494942184
11524674 6 17561361786241437855
11719270 70 17846779585330894398
11796584 16 18343022207482588822
12107183 9 18265048037937213344
12166972 35 18335706061164053349
12236239 1 18260547848793482721
13073987 5 18337390564258106522
13167372 99 18342178843124594553
13167823 11 18337951298298774162
13533116 47 18059857255703609840
13785724 45 18124880045709868534
14341114 176 18408889567924621293
14904525 67 15502371240158667629
14933364 13 18408325501100380973
15183329 4 18413111640850810560
15196674 1 18410856606894985824
15250474 111 18269260430435489270
15419008 42 17984700021837504196
15927050 60 18407757045827932203
17844677 252 18410300249895880896
1813 80 16877657998084588916
18335252 114 18411972547527699477
19611394 137 17969518164073294249
20281389 69 18334012787787778117
21033648 29 17988069127318169760
21065198 57 18267021837297319256
21236236 1 18341049726998981343
21279426 13 18411702075502177463
21315764 268 18336823182242028845
21859007 373 17896029945935164341
23536379 177 18410574002373745937
23559900 14 18343015605579310809
23569943 247 17314496050695927402
249057 3 18410856551081601076
2838139 119 18411695466460534877
3004659 81 18408887335153193344
3103668 31 17971471801950714756
335352 9 18410856551356005389
3545911 37 18409730647560370453
4073 2 18042127720789278594
4214541 1 18410575110586058373
5104073 3 18411138077582004784
559249 180 18411134732077202739
59755656 215 18338800013637374119
59755656 520 17167863071877516219
6299153 45 18340209562085667761
633830 44 17749386035338125952
9965369 4 18410854339542695849
9995097 60 18413389834557000582
9996256 80 18411981403628560907

> <PUBCHEM_SHAPE_MULTIPOLES>
468.74
19.24
2.74
0.65
0.96
0.24
0
-3.41
0
0.38
0
0.27
0.1
0

> <PUBCHEM_SHAPE_SELFOVERLAP>
1021.646

> <PUBCHEM_SHAPE_VOLUME>
257.1

> <PUBCHEM_COORDINATE_TYPE>
2
5
10

$$$$
