24905282
  -OEChem-10052115163D

 45 47  0     0  0  0  0  0  0999 V2000
    4.7109   -0.1456    0.3781 O   0  0  0  0  0  0  0  0  0  0  0  0
    3.4304   -0.2577   -2.0861 O   0  0  0  0  0  0  0  0  0  0  0  0
   -2.7586    1.1275   -0.0695 N   0  0  0  0  0  0  0  0  0  0  0  0
   -1.4451    1.4197   -0.0364 N   0  0  0  0  0  0  0  0  0  0  0  0
   -4.2309   -0.7922    0.0287 N   0  0  0  0  0  0  0  0  0  0  0  0
   -2.9828   -2.8752    0.2606 N   0  0  0  0  0  0  0  0  0  0  0  0
   -0.5995   -2.9453    0.3725 N   0  0  0  0  0  0  0  0  0  0  0  0
   -3.7221    2.1945   -0.2023 C   0  0  0  0  0  0  0  0  0  0  0  0
   -3.0231   -0.2060    0.0321 C   0  0  0  0  0  0  0  0  0  0  0  0
   -1.7937   -0.8322    0.1394 C   0  0  0  0  0  0  0  0  0  0  0  0
   -0.8629    0.2222    0.0908 C   0  0  0  0  0  0  0  0  0  0  0  0
    0.5735    0.1281    0.1618 C   0  0  0  0  0  0  0  0  0  0  0  0
   -3.1701    3.3501   -1.0407 C   0  0  0  0  0  0  0  0  0  0  0  0
   -4.2027    2.6923    1.1629 C   0  0  0  0  0  0  0  0  0  0  0  0
   -1.7981   -2.2181    0.2569 C   0  0  0  0  0  0  0  0  0  0  0  0
    1.3209   -0.0204   -1.0066 C   0  0  0  0  0  0  0  0  0  0  0  0
    1.2162    0.1845    1.3985 C   0  0  0  0  0  0  0  0  0  0  0  0
    2.7112   -0.1122   -0.9382 C   0  0  0  0  0  0  0  0  0  0  0  0
    3.3539   -0.0560    0.2984 C   0  0  0  0  0  0  0  0  0  0  0  0
    2.6064    0.0923    1.4667 C   0  0  0  0  0  0  0  0  0  0  0  0
   -4.1095   -2.1320    0.1478 C   0  0  0  0  0  0  0  0  0  0  0  0
    5.3431    0.5367    1.4593 C   0  0  0  0  0  0  0  0  0  0  0  0
    2.6972   -0.3064   -3.3085 C   0  0  0  0  0  0  0  0  0  0  0  0
    6.7355    0.9513    1.0340 C   0  0  0  0  0  0  0  0  0  0  0  0
   -4.5816    1.7772   -0.7420 H   0  0  0  0  0  0  0  0  0  0  0  0
   -2.3438    3.8654   -0.5380 H   0  0  0  0  0  0  0  0  0  0  0  0
   -3.9538    4.0924   -1.2281 H   0  0  0  0  0  0  0  0  0  0  0  0
   -2.8084    2.9966   -2.0129 H   0  0  0  0  0  0  0  0  0  0  0  0
   -3.3749    3.1084    1.7480 H   0  0  0  0  0  0  0  0  0  0  0  0
   -4.6414    1.8753    1.7462 H   0  0  0  0  0  0  0  0  0  0  0  0
   -4.9641    3.4707    1.0473 H   0  0  0  0  0  0  0  0  0  0  0  0
    0.7689   -0.0590   -1.9406 H   0  0  0  0  0  0  0  0  0  0  0  0
    0.6470    0.2928    2.3188 H   0  0  0  0  0  0  0  0  0  0  0  0
    3.0625    0.1108    2.4520 H   0  0  0  0  0  0  0  0  0  0  0  0
   -5.0400   -2.6895    0.1543 H   0  0  0  0  0  0  0  0  0  0  0  0
    0.2978   -2.4833    0.3738 H   0  0  0  0  0  0  0  0  0  0  0  0
   -0.6479   -3.9518    0.4570 H   0  0  0  0  0  0  0  0  0  0  0  0
    4.8017    1.4490    1.7399 H   0  0  0  0  0  0  0  0  0  0  0  0
    5.4050   -0.1348    2.3226 H   0  0  0  0  0  0  0  0  0  0  0  0
    3.4266   -0.4243   -4.1167 H   0  0  0  0  0  0  0  0  0  0  0  0
    2.1637    0.6314   -3.4973 H   0  0  0  0  0  0  0  0  0  0  0  0
    2.0361   -1.1790   -3.3486 H   0  0  0  0  0  0  0  0  0  0  0  0
    7.3251    0.0766    0.7398 H   0  0  0  0  0  0  0  0  0  0  0  0
    6.6917    1.6127    0.1623 H   0  0  0  0  0  0  0  0  0  0  0  0
    7.2549    1.4697    1.8448 H   0  0  0  0  0  0  0  0  0  0  0  0
  1 19  1  0  0  0  0
  1 22  1  0  0  0  0
  2 18  1  0  0  0  0
  2 23  1  0  0  0  0
  3  4  1  0  0  0  0
  3  8  1  0  0  0  0
  3  9  1  0  0  0  0
  4 11  2  0  0  0  0
  5  9  2  0  0  0  0
  5 21  1  0  0  0  0
  6 15  1  0  0  0  0
  6 21  2  0  0  0  0
  7 15  1  0  0  0  0
  7 36  1  0  0  0  0
  7 37  1  0  0  0  0
  8 13  1  0  0  0  0
  8 14  1  0  0  0  0
  8 25  1  0  0  0  0
  9 10  1  0  0  0  0
 10 11  1  0  0  0  0
 10 15  2  0  0  0  0
 11 12  1  0  0  0  0
 12 16  2  0  0  0  0
 12 17  1  0  0  0  0
 13 26  1  0  0  0  0
 13 27  1  0  0  0  0
 13 28  1  0  0  0  0
 14 29  1  0  0  0  0
 14 30  1  0  0  0  0
 14 31  1  0  0  0  0
 16 18  1  0  0  0  0
 16 32  1  0  0  0  0
 17 20  2  0  0  0  0
 17 33  1  0  0  0  0
 18 19  2  0  0  0  0
 19 20  1  0  0  0  0
 20 34  1  0  0  0  0
 21 35  1  0  0  0  0
 22 24  1  0  0  0  0
 22 38  1  0  0  0  0
 22 39  1  0  0  0  0
 23 40  1  0  0  0  0
 23 41  1  0  0  0  0
 23 42  1  0  0  0  0
 24 43  1  0  0  0  0
 24 44  1  0  0  0  0
 24 45  1  0  0  0  0
M  END
> <PUBCHEM_COMPOUND_CID>
24905282

> <PUBCHEM_CONFORMER_RMSD>
0.8

> <PUBCHEM_CONFORMER_DIVERSEORDER>
2
8
3
11
9
13
14
5
7
4
10
6
12
1

> <PUBCHEM_MMFF94_PARTIAL_CHARGES>
26
1 -0.36
11 0.23
12 0.05
15 0.41
16 -0.15
17 -0.15
18 0.08
19 0.08
2 -0.36
20 -0.15
21 0.47
22 0.28
23 0.28
3 0.31
32 0.15
33 0.15
34 0.15
35 0.15
36 0.4
37 0.4
4 -0.71
5 -0.57
6 -0.62
7 -0.9
8 0.26
9 0.11

> <PUBCHEM_EFFECTIVE_ROTOR_COUNT>
5

> <PUBCHEM_PHARMACOPHORE_FEATURES>
11
1 1 acceptor
1 2 acceptor
1 4 acceptor
1 7 cation
1 7 donor
3 3 5 9 cation
3 5 6 21 cation
3 8 13 14 hydrophobe
5 3 4 9 10 11 rings
6 12 16 17 18 19 20 rings
6 5 6 9 10 15 21 rings

> <PUBCHEM_HEAVY_ATOM_COUNT>
24

> <PUBCHEM_ATOM_DEF_STEREO_COUNT>
0

> <PUBCHEM_ATOM_UDEF_STEREO_COUNT>
0

> <PUBCHEM_BOND_DEF_STEREO_COUNT>
0

> <PUBCHEM_BOND_UDEF_STEREO_COUNT>
0

> <PUBCHEM_ISOTOPIC_ATOM_COUNT>
0

> <PUBCHEM_COMPONENT_COUNT>
1

> <PUBCHEM_CACTVS_TAUTO_COUNT>
5

> <PUBCHEM_CONFORMER_ID>
017C064200000002

> <PUBCHEM_MMFF94_ENERGY>
73.3937

> <PUBCHEM_FEATURE_SELFOVERLAP>
56.104

> <PUBCHEM_SHAPE_FINGERPRINT>
10319926 262 18340749487267775426
10411042 1 17976535341286646795
11049842 53 18117579348287866350
11315181 36 18113611326939761576
11582403 64 16765572571505145689
11796584 16 18269568130893829838
12107183 9 17901086535401991394
12173636 292 18263924333186199669
12236239 1 17458620146544198050
12403259 415 17988935448323528390
12422481 6 17607221196612994706
12616971 3 17022911133387293996
12788726 201 17970084407491586691
13140716 1 18193561301589326451
13583140 156 18129929157543259082
13965767 371 17607237667248169316
14178342 30 18334575737218758598
15375358 24 17846495911742000864
15842332 3 17531543069286795558
16752209 62 18335421279352077419
17349148 13 16805315630851408760
17980427 23 17822293518005856988
18915476 22 16845578591071731262
200 152 16298655161965306922
20600515 1 18411704257589092508
20645477 70 16702024119603200204
20693207 138 17702130047704885438
21033648 29 17560784555584833464
21033650 10 18189921763255679028
21065201 7 18411707564824108406
21133410 90 17969479641995457861
22182313 1 17775014487540386534
23402539 116 18338223972745103095
23557571 272 18272092716548270816
23559900 14 18339631360603053992
23598291 2 17458634401508875342
25147074 1 17603875537147820220
283562 15 18411692197974507379
469060 322 18263381286411668409
5104073 3 18337669715937365018
6327066 14 17971457525821995525
633830 44 17630044841586435577
7615 1 17603590763282635956
77492 1 17530686523732107023
81228 2 18337955701141042481
9849439 229 17905886981631818385
9862522 239 17751071415118457829

> <PUBCHEM_SHAPE_MULTIPOLES>
457.27
11.26
2.87
1.77
12.58
0.14
-1.64
3.96
2.98
-5.99
0.16
2.65
0.17
1.02

> <PUBCHEM_SHAPE_SELFOVERLAP>
986.619

> <PUBCHEM_SHAPE_VOLUME>
252

> <PUBCHEM_COORDINATE_TYPE>
2
5
10

$$$$
