11156716
  -OEChem-10052115183D

 54 58  0     0  0  0  0  0  0999 V2000
   -5.1545    0.0381   -1.8967 S   0  0  0  0  0  0  0  0  0  0  0  0
    7.0449    3.0996    0.1877 F   0  0  0  0  0  0  0  0  0  0  0  0
    9.1746   -2.8199    0.0663 F   0  0  0  0  0  0  0  0  0  0  0  0
    7.2384   -3.1414    0.9891 F   0  0  0  0  0  0  0  0  0  0  0  0
    7.4007   -3.0169   -1.1758 F   0  0  0  0  0  0  0  0  0  0  0  0
    3.5398   -0.5069   -0.2538 O   0  0  0  0  0  0  0  0  0  0  0  0
   -4.7660   -0.0264    2.5649 N   0  0  0  0  0  0  0  0  0  0  0  0
   -2.4678    0.4740    2.3282 N   0  0  0  0  0  0  0  0  0  0  0  0
    2.5503    1.6167   -0.2289 N   0  0  0  0  0  0  0  0  0  0  0  0
    4.8460    1.4235   -0.0625 N   0  0  0  0  0  0  0  0  0  0  0  0
  -10.1393   -1.0611   -0.8245 N   0  0  0  0  0  0  0  0  0  0  0  0
   -3.8836    0.2364    0.3459 C   0  0  0  0  0  0  0  0  0  0  0  0
   -2.9331    0.4750   -0.7022 C   0  0  0  0  0  0  0  0  0  0  0  0
   -5.1557   -0.0192   -0.1740 C   0  0  0  0  0  0  0  0  0  0  0  0
   -1.5260    0.7679   -0.5809 C   0  0  0  0  0  0  0  0  0  0  0  0
   -6.2452   -0.2807    0.6653 C   0  0  0  0  0  0  0  0  0  0  0  0
   -3.7243    0.2244    1.7407 C   0  0  0  0  0  0  0  0  0  0  0  0
   -3.4892    0.3971   -1.9570 C   0  0  0  0  0  0  0  0  0  0  0  0
   -7.5695   -0.5461    0.1583 C   0  0  0  0  0  0  0  0  0  0  0  0
   -1.1010    2.0897   -0.4856 C   0  0  0  0  0  0  0  0  0  0  0  0
   -0.6027   -0.2732   -0.5595 C   0  0  0  0  0  0  0  0  0  0  0  0
   -5.9752   -0.2678    2.0224 C   0  0  0  0  0  0  0  0  0  0  0  0
    1.1893    1.3333   -0.3464 C   0  0  0  0  0  0  0  0  0  0  0  0
    0.2597    2.3731   -0.3682 C   0  0  0  0  0  0  0  0  0  0  0  0
    0.7580    0.0102   -0.4419 C   0  0  0  0  0  0  0  0  0  0  0  0
   -8.4641    0.5004   -0.0498 C   0  0  0  0  0  0  0  0  0  0  0  0
   -7.9634   -1.8508   -0.1266 C   0  0  0  0  0  0  0  0  0  0  0  0
    6.1594    0.9025    0.0132 C   0  0  0  0  0  0  0  0  0  0  0  0
    3.6409    0.7141   -0.1883 C   0  0  0  0  0  0  0  0  0  0  0  0
   -9.7240    0.1930   -0.5377 C   0  0  0  0  0  0  0  0  0  0  0  0
   -9.2458   -2.0530   -0.6110 C   0  0  0  0  0  0  0  0  0  0  0  0
    7.6400   -0.9849    0.0356 C   0  0  0  0  0  0  0  0  0  0  0  0
    6.3462   -0.4690   -0.0388 C   0  0  0  0  0  0  0  0  0  0  0  0
    7.2300    1.7727    0.1376 C   0  0  0  0  0  0  0  0  0  0  0  0
    8.7288   -0.1221    0.1607 C   0  0  0  0  0  0  0  0  0  0  0  0
    8.5238    1.2568    0.2119 C   0  0  0  0  0  0  0  0  0  0  0  0
    7.8598   -2.4592   -0.0178 C   0  0  0  0  0  0  0  0  0  0  0  0
   -3.0042    0.5319   -2.9149 H   0  0  0  0  0  0  0  0  0  0  0  0
   -1.8133    2.9110   -0.4997 H   0  0  0  0  0  0  0  0  0  0  0  0
   -0.9245   -1.3094   -0.6319 H   0  0  0  0  0  0  0  0  0  0  0  0
   -6.7582   -0.4595    2.7517 H   0  0  0  0  0  0  0  0  0  0  0  0
    0.5815    3.4088   -0.2940 H   0  0  0  0  0  0  0  0  0  0  0  0
    1.4131   -0.8491   -0.4319 H   0  0  0  0  0  0  0  0  0  0  0  0
   -8.1972    1.5317    0.1592 H   0  0  0  0  0  0  0  0  0  0  0  0
   -7.2972   -2.6950    0.0210 H   0  0  0  0  0  0  0  0  0  0  0  0
   -1.6375    0.6709    1.7964 H   0  0  0  0  0  0  0  0  0  0  0  0
   -2.4074    0.4535    3.3381 H   0  0  0  0  0  0  0  0  0  0  0  0
    2.7870    2.6037   -0.1641 H   0  0  0  0  0  0  0  0  0  0  0  0
    4.7782    2.4372   -0.0191 H   0  0  0  0  0  0  0  0  0  0  0  0
  -10.4559    0.9737   -0.7163 H   0  0  0  0  0  0  0  0  0  0  0  0
   -9.5991   -3.0512   -0.8478 H   0  0  0  0  0  0  0  0  0  0  0  0
    5.5529   -1.1951   -0.1347 H   0  0  0  0  0  0  0  0  0  0  0  0
    9.7439   -0.5046    0.2202 H   0  0  0  0  0  0  0  0  0  0  0  0
    9.3713    1.9290    0.3094 H   0  0  0  0  0  0  0  0  0  0  0  0
  1 14  1  0  0  0  0
  1 18  1  0  0  0  0
  2 34  1  0  0  0  0
  3 37  1  0  0  0  0
  4 37  1  0  0  0  0
  5 37  1  0  0  0  0
  6 29  2  0  0  0  0
  7 17  2  0  0  0  0
  7 22  1  0  0  0  0
  8 17  1  0  0  0  0
  8 46  1  0  0  0  0
  8 47  1  0  0  0  0
  9 23  1  0  0  0  0
  9 29  1  0  0  0  0
  9 48  1  0  0  0  0
 10 28  1  0  0  0  0
 10 29  1  0  0  0  0
 10 49  1  0  0  0  0
 11 30  2  0  0  0  0
 11 31  1  0  0  0  0
 12 13  1  0  0  0  0
 12 14  2  0  0  0  0
 12 17  1  0  0  0  0
 13 15  1  0  0  0  0
 13 18  2  0  0  0  0
 14 16  1  0  0  0  0
 15 20  2  0  0  0  0
 15 21  1  0  0  0  0
 16 19  1  0  0  0  0
 16 22  2  0  0  0  0
 18 38  1  0  0  0  0
 19 26  2  0  0  0  0
 19 27  1  0  0  0  0
 20 24  1  0  0  0  0
 20 39  1  0  0  0  0
 21 25  2  0  0  0  0
 21 40  1  0  0  0  0
 22 41  1  0  0  0  0
 23 24  2  0  0  0  0
 23 25  1  0  0  0  0
 24 42  1  0  0  0  0
 25 43  1  0  0  0  0
 26 30  1  0  0  0  0
 26 44  1  0  0  0  0
 27 31  2  0  0  0  0
 27 45  1  0  0  0  0
 28 33  1  0  0  0  0
 28 34  2  0  0  0  0
 30 50  1  0  0  0  0
 31 51  1  0  0  0  0
 32 33  2  0  0  0  0
 32 35  1  0  0  0  0
 32 37  1  0  0  0  0
 33 52  1  0  0  0  0
 34 36  1  0  0  0  0
 35 36  2  0  0  0  0
 35 53  1  0  0  0  0
 36 54  1  0  0  0  0
M  END
> <PUBCHEM_COMPOUND_CID>
11156716

> <PUBCHEM_CONFORMER_RMSD>
1

> <PUBCHEM_CONFORMER_DIVERSEORDER>
2
15
12
8
10
9
1
16
7
11
14
5
3
13
6
4

> <PUBCHEM_MMFF94_PARTIAL_CHARGES>
51
1 -0.08
10 -0.55
11 -0.62
13 -0.05
14 0.04
15 0.05
17 0.41
18 -0.11
2 -0.19
20 -0.15
21 -0.15
22 0.16
23 0.12
24 -0.15
25 -0.15
26 -0.15
27 -0.15
28 0.12
29 0.69
3 -0.34
30 0.16
31 0.16
32 -0.14
33 -0.15
34 0.19
35 -0.15
36 -0.15
37 1.16
38 0.15
39 0.15
4 -0.34
40 0.15
41 0.15
42 0.15
43 0.15
44 0.15
45 0.15
46 0.4
47 0.4
48 0.37
49 0.37
5 -0.34
50 0.15
51 0.15
52 0.15
53 0.15
54 0.15
6 -0.57
7 -0.62
8 -0.9
9 -0.55

> <PUBCHEM_EFFECTIVE_ROTOR_COUNT>
7

> <PUBCHEM_PHARMACOPHORE_FEATURES>
11
1 10 donor
1 11 acceptor
1 6 acceptor
1 8 donor
1 9 donor
3 7 8 17 cation
5 1 12 13 14 18 rings
6 11 19 26 27 30 31 rings
6 15 20 21 23 24 25 rings
6 28 32 33 34 35 36 rings
6 7 12 14 16 17 22 rings

> <PUBCHEM_HEAVY_ATOM_COUNT>
37

> <PUBCHEM_ATOM_DEF_STEREO_COUNT>
0

> <PUBCHEM_ATOM_UDEF_STEREO_COUNT>
0

> <PUBCHEM_BOND_DEF_STEREO_COUNT>
0

> <PUBCHEM_BOND_UDEF_STEREO_COUNT>
0

> <PUBCHEM_ISOTOPIC_ATOM_COUNT>
0

> <PUBCHEM_COMPONENT_COUNT>
1

> <PUBCHEM_CACTVS_TAUTO_COUNT>
9

> <PUBCHEM_CONFORMER_ID>
00AA3CEC00000002

> <PUBCHEM_MMFF94_ENERGY>
115.3957

> <PUBCHEM_FEATURE_SELFOVERLAP>
55.936

> <PUBCHEM_SHAPE_FINGERPRINT>
10 15 13973969800548743125
10076449 9 16732978739760067125
10168742 298 16370730309340006163
10299344 5 17775284980565516780
10369192 42 10880001238018542017
10674148 151 17022900168974610265
11408170 108 18409173195218277523
12013929 2 18409163299908734349
12082328 90 18409163295112782725
12089408 11 18060422421886685497
12539745 222 18131072593728491697
12539765 74 10881395426788397104
12643181 29 16733264647169043809
12758862 11 16878226463140637929
13553644 42 17750504079840176210
13560911 43 16845576426070754104
13811026 1 18113057133886553853
14040221 310 14476956741964874633
14040221 8 14490465370405750935
14117953 113 16298384686790277119
14118638 360 15792000147972787321
14202775 3 18261115231918960747
150020 25 17676487237769617802
15065858 18 18408317809568048669
15131766 46 17764585817653165461
15198563 99 17023178289091214829
15328684 2 17203337650522212922
15392192 104 17346321509999906046
15419008 91 17313369176496529788
15510794 2 18040432188149805700
17686467 74 12823292412950190495
18603816 31 18271521018406240807
19301679 30 18059581226882951004
19841028 212 18409444782758208282
20105231 36 18342745066829617430
2026 5 18187362082685204730
21102433 48 17917425467808380439
212700 22 18333730242821139211
21362267 20 18341329007312026287
21362267 313 17775013327677839241
21792961 116 17603861196199466021
232437 2 18411418427709812983
23522609 53 17774459286173204472
23559900 14 16371577054580892109
249057 3 15213301954163126653
3092352 35 17275389824579990020
3711267 37 8430325670888855439
4017518 198 17458060496154822371
437795 160 14764335073017198405
4625314 4 18260829341087160829
474113 269 18410573981194301845
504579 68 13840273589026434862
59521270 166 15140947458253643415
59682541 35 13686300192875973821
6126387 218 18412547596677955561
6201320 215 18129385909202047897
6691757 9 16200154335651080359
9962374 69 18338229470851770876

> <PUBCHEM_SHAPE_MULTIPOLES>
705.42
37.29
2.42
1.46
15.75
1.17
-0.61
18.96
0.72
6.92
0.22
-3.02
0.06
0.11

> <PUBCHEM_SHAPE_SELFOVERLAP>
1568.515

> <PUBCHEM_SHAPE_VOLUME>
381.3

> <PUBCHEM_COORDINATE_TYPE>
2
5
10

$$$$
