11682843
  -OEChem-10062121593D

 47 49  0     1  0  0  0  0  0999 V2000
    5.6556   -0.7341   -2.2334 Cl  0  0  0  0  0  0  0  0  0  0  0  0
    3.0924    0.4893   -1.4174 F   0  0  0  0  0  0  0  0  0  0  0  0
   -4.2351    2.1781   -0.1164 O   0  0  0  0  0  0  0  0  0  0  0  0
   -2.0089   -4.1927   -0.3259 O   0  0  0  0  0  0  0  0  0  0  0  0
   -2.9228   -1.6533    0.1176 N   0  0  1  0  0  0  0  0  0  0  0  0
    1.7143    0.0952    0.9544 N   0  0  0  0  0  0  0  0  0  0  0  0
    0.2487    3.7690   -0.2641 N   0  0  0  0  0  0  0  0  0  0  0  0
    2.0915    2.3258    0.3087 N   0  0  0  0  0  0  0  0  0  0  0  0
   -4.1642   -4.9427   -0.5900 N   0  0  0  0  0  0  0  0  0  0  0  0
   -3.4214   -0.4253    0.7300 C   0  0  0  0  0  0  0  0  0  0  0  0
   -2.4585    0.6842    0.4665 C   0  0  0  0  0  0  0  0  0  0  0  0
   -0.1793    1.5013    0.3890 C   0  0  0  0  0  0  0  0  0  0  0  0
   -1.0950    0.4634    0.6344 C   0  0  0  0  0  0  0  0  0  0  0  0
   -2.9054    1.9350    0.0555 C   0  0  0  0  0  0  0  0  0  0  0  0
   -0.6184    2.7691   -0.0265 C   0  0  0  0  0  0  0  0  0  0  0  0
   -1.9884    2.9622   -0.1866 C   0  0  0  0  0  0  0  0  0  0  0  0
   -3.8182   -2.7733    0.4100 C   0  0  0  0  0  0  0  0  0  0  0  0
    1.1962    1.3468    0.5378 C   0  0  0  0  0  0  0  0  0  0  0  0
   -2.7759   -1.4832   -1.3283 C   0  0  0  0  0  0  0  0  0  0  0  0
   -3.2190   -4.0235   -0.1923 C   0  0  0  0  0  0  0  0  0  0  0  0
    2.9303   -0.5583    0.7003 C   0  0  0  0  0  0  0  0  0  0  0  0
    1.5562    3.4933   -0.0833 C   0  0  0  0  0  0  0  0  0  0  0  0
   -4.6046    3.4888   -0.5397 C   0  0  0  0  0  0  0  0  0  0  0  0
    3.6099   -0.3455   -0.5031 C   0  0  0  0  0  0  0  0  0  0  0  0
    3.4707   -1.4288    1.6519 C   0  0  0  0  0  0  0  0  0  0  0  0
    4.8181   -0.9967   -0.7523 C   0  0  0  0  0  0  0  0  0  0  0  0
    4.6787   -2.0800    1.4027 C   0  0  0  0  0  0  0  0  0  0  0  0
    5.3524   -1.8639    0.2006 C   0  0  0  0  0  0  0  0  0  0  0  0
   -3.5030   -0.5479    1.8177 H   0  0  0  0  0  0  0  0  0  0  0  0
   -4.4267   -0.1945    0.3564 H   0  0  0  0  0  0  0  0  0  0  0  0
   -0.7515   -0.5118    0.9690 H   0  0  0  0  0  0  0  0  0  0  0  0
   -2.2869    3.9557   -0.5089 H   0  0  0  0  0  0  0  0  0  0  0  0
   -3.8923   -2.9393    1.4910 H   0  0  0  0  0  0  0  0  0  0  0  0
   -4.8268   -2.6002    0.0152 H   0  0  0  0  0  0  0  0  0  0  0  0
   -2.3857   -2.3705   -1.8354 H   0  0  0  0  0  0  0  0  0  0  0  0
   -2.0615   -0.7001   -1.6013 H   0  0  0  0  0  0  0  0  0  0  0  0
   -3.7336   -1.2345   -1.8032 H   0  0  0  0  0  0  0  0  0  0  0  0
    1.2020   -0.3025    1.7370 H   0  0  0  0  0  0  0  0  0  0  0  0
    2.2496    4.3027   -0.2768 H   0  0  0  0  0  0  0  0  0  0  0  0
   -4.3368    4.2455    0.2056 H   0  0  0  0  0  0  0  0  0  0  0  0
   -5.6964    3.5024   -0.6248 H   0  0  0  0  0  0  0  0  0  0  0  0
   -4.2078    3.7198   -1.5342 H   0  0  0  0  0  0  0  0  0  0  0  0
    2.9576   -1.6067    2.5939 H   0  0  0  0  0  0  0  0  0  0  0  0
   -3.8890   -5.8219   -1.0152 H   0  0  0  0  0  0  0  0  0  0  0  0
   -5.1601   -4.7878   -0.4702 H   0  0  0  0  0  0  0  0  0  0  0  0
    5.0950   -2.7551    2.1447 H   0  0  0  0  0  0  0  0  0  0  0  0
    6.2929   -2.3782    0.0205 H   0  0  0  0  0  0  0  0  0  0  0  0
  1 26  1  0  0  0  0
  2 24  1  0  0  0  0
  3 14  1  0  0  0  0
  3 23  1  0  0  0  0
  4 20  2  0  0  0  0
  5 10  1  0  0  0  0
  5 17  1  0  0  0  0
  5 19  1  0  0  0  0
  6 18  1  0  0  0  0
  6 21  1  0  0  0  0
  6 38  1  0  0  0  0
  7 15  1  0  0  0  0
  7 22  2  0  0  0  0
  8 18  2  0  0  0  0
  8 22  1  0  0  0  0
  9 20  1  0  0  0  0
  9 44  1  0  0  0  0
  9 45  1  0  0  0  0
 10 11  1  0  0  0  0
 10 29  1  0  0  0  0
 10 30  1  0  0  0  0
 11 13  2  0  0  0  0
 11 14  1  0  0  0  0
 12 13  1  0  0  0  0
 12 15  2  0  0  0  0
 12 18  1  0  0  0  0
 13 31  1  0  0  0  0
 14 16  2  0  0  0  0
 15 16  1  0  0  0  0
 16 32  1  0  0  0  0
 17 20  1  0  0  0  0
 17 33  1  0  0  0  0
 17 34  1  0  0  0  0
 19 35  1  0  0  0  0
 19 36  1  0  0  0  0
 19 37  1  0  0  0  0
 21 24  2  0  0  0  0
 21 25  1  0  0  0  0
 22 39  1  0  0  0  0
 23 40  1  0  0  0  0
 23 41  1  0  0  0  0
 23 42  1  0  0  0  0
 24 26  1  0  0  0  0
 25 27  2  0  0  0  0
 25 43  1  0  0  0  0
 26 28  2  0  0  0  0
 27 28  1  0  0  0  0
 27 46  1  0  0  0  0
 28 47  1  0  0  0  0
M  END
> <PUBCHEM_COMPOUND_CID>
11682843

> <PUBCHEM_CONFORMER_RMSD>
0.8

> <PUBCHEM_CONFORMER_DIVERSEORDER>
213
144
178
153
88
192
72
103
246
26
75
232
66
225
166
275
60
187
260
143
52
282
119
206
224
233
265
201
35
244
212
253
159
274
221
170
148
100
89
173
227
132
20
179
74
181
110
174
106
49
204
263
239
268
51
7
167
256
194
42
164
231
130
118
272
249
4
223
269
105
172
98
191
176
65
154
162
120
280
261
278
255
203
264
229
95
146
195
158
6
230
73
247
125
14
184
104
79
31
134
139
152
121
69
216
28
168
235
185
136
199
137
279
34
236
18
55
23
128
228
135
63
202
47
237
138
90
101
116
58
197
208
127
155
156
215
245
111
126
234
53
207
277
41
189
220
165
193
145
214
147
29
243
262
12
96
64
87
219
46
140
48
27
115
57
160
71
13
59
175
258
50
267
251
240
200
5
85
248
3
39
45
68
161
122
99
188
238
109
33
169
107
113
257
141
186
24
81
242
40
97
117
241
25
205
198
112
82
22
67
281
77
37
266
108
123
36
142
183
17
44
211
80
10
19
86
157
38
250
56
78
190
149
217
276
177
21
210
43
94
150
11
209
92
61
91
16
180
129
84
83
218
131
8
151
9
271
226
32
163
124
70
171
102
114
222
30
54
76
259
62
252
254
93
133
182
1
273
196
15
270
2

> <PUBCHEM_MMFF94_PARTIAL_CHARGES>
36
1 -0.18
10 0.41
11 -0.14
13 -0.15
14 0.08
15 0.31
16 -0.15
17 0.33
18 0.41
19 0.27
2 -0.19
20 0.57
21 0.1
22 0.47
23 0.28
24 0.19
25 -0.15
26 0.18
27 -0.15
28 -0.15
3 -0.36
31 0.15
32 0.15
38 0.4
39 0.15
4 -0.57
43 0.15
44 0.37
45 0.37
46 0.15
47 0.15
5 -0.81
6 -0.6
7 -0.62
8 -0.62
9 -0.8

> <PUBCHEM_EFFECTIVE_ROTOR_COUNT>
7

> <PUBCHEM_PHARMACOPHORE_FEATURES>
10
1 3 acceptor
1 4 acceptor
1 5 cation
1 6 donor
1 9 donor
3 6 8 18 cation
3 7 8 22 cation
6 11 12 13 14 15 16 rings
6 21 24 25 26 27 28 rings
6 7 8 12 15 18 22 rings

> <PUBCHEM_HEAVY_ATOM_COUNT>
28

> <PUBCHEM_ATOM_DEF_STEREO_COUNT>
0

> <PUBCHEM_ATOM_UDEF_STEREO_COUNT>
0

> <PUBCHEM_BOND_DEF_STEREO_COUNT>
0

> <PUBCHEM_BOND_UDEF_STEREO_COUNT>
0

> <PUBCHEM_ISOTOPIC_ATOM_COUNT>
0

> <PUBCHEM_COMPONENT_COUNT>
1

> <PUBCHEM_CACTVS_TAUTO_COUNT>
6

> <PUBCHEM_CONFORMER_ID>
00B2441B000000D5

> <PUBCHEM_MMFF94_ENERGY>
109.0378

> <PUBCHEM_FEATURE_SELFOVERLAP>
50.918

> <PUBCHEM_SHAPE_FINGERPRINT>
10483366 6 18338497674843825839
10622 236 17823402804795375378
10928967 22 18337402611842605274
10940486 97 18334863796428281516
11014199 57 18266734864815685219
11186622 123 18336548330188563270
12147406 95 18055637471393805079
12236239 1 17532384049764380216
12553582 1 18409448081097600986
12788726 201 18046919177857881320
12990986 174 18410568487994615914
13140716 1 18413383237492833785
13690498 29 18335717069022093935
13726171 33 18055664856390509876
13785724 45 18051705635636870095
14251757 5 18337398140664825686
14790565 3 17905329524514248921
14866123 147 18412823569717294139
15320294 125 17753879524834807506
15537594 2 18188508877670512072
17492 89 18267018551874438123
19319366 153 17460036175818404739
20028762 73 18271514301129773325
20511986 3 17604707743117722544
20775530 9 18198625621370103739
21703447 108 18125430062814615657
22849339 104 18340497655385461375
23379529 103 18271539683679812262
23559900 14 18340199705421124984
3004659 81 17679025894496992080
3178227 256 18191881028900793169
3383291 50 18340481163380769179
340366 18 18334858286269979693
3737641 26 18048606116214494643
4280585 95 18337098038842239802
4394409 98 18117820132722919599
44062 13 18411421691600328975
44880168 125 17774735194075812086
463206 1 18263359205436582378
508706 21 18272375239223104959
5385378 56 17548983257056772073
70251023 43 18191870243736239771

> <PUBCHEM_SHAPE_MULTIPOLES>
534.18
11.35
5.93
1.28
9.91
3.91
0.31
6.33
2.36
-9.24
0.89
1.88
0.48
-0.73

> <PUBCHEM_SHAPE_SELFOVERLAP>
1149.371

> <PUBCHEM_SHAPE_VOLUME>
295.7

> <PUBCHEM_COORDINATE_TYPE>
2
5
10

$$$$
