49830900
  -OEChem-10052120443D

 48 51  0     0  0  0  0  0  0999 V2000
   -0.2230    3.2870    0.4151 F   0  0  0  0  0  0  0  0  0  0  0  0
    4.0676    1.3110    0.3597 O   0  0  0  0  0  0  0  0  0  0  0  0
   -7.4130   -0.2319    1.8388 O   0  0  0  0  0  0  0  0  0  0  0  0
    1.7813    1.3470    0.1364 N   0  0  0  0  0  0  0  0  0  0  0  0
    3.0817   -0.6445   -0.2244 N   0  0  0  0  0  0  0  0  0  0  0  0
   -4.0008   -0.4455    1.6367 N   0  0  0  0  0  0  0  0  0  0  0  0
   -6.8512   -2.4045    1.3668 N   0  0  0  0  0  0  0  0  0  0  0  0
    5.0472    0.3688    0.2273 C   0  0  0  0  0  0  0  0  0  0  0  0
    4.4403   -0.8261   -0.1300 C   0  0  0  0  0  0  0  0  0  0  0  0
    6.4140    0.5393    0.4094 C   0  0  0  0  0  0  0  0  0  0  0  0
   -2.3131    0.4549   -0.4947 C   0  0  0  0  0  0  0  0  0  0  0  0
   -3.7108    0.1497   -0.7104 C   0  0  0  0  0  0  0  0  0  0  0  0
    6.6262   -1.8274   -0.1533 C   0  0  0  0  0  0  0  0  0  0  0  0
    5.2411   -1.9601   -0.3281 C   0  0  0  0  0  0  0  0  0  0  0  0
    0.3819    1.0440   -0.0790 C   0  0  0  0  0  0  0  0  0  0  0  0
    2.9247    0.6265    0.0736 C   0  0  0  0  0  0  0  0  0  0  0  0
    7.1985   -0.6015    0.2081 C   0  0  0  0  0  0  0  0  0  0  0  0
   -4.5281   -0.2882    0.3317 C   0  0  0  0  0  0  0  0  0  0  0  0
   -1.9288    1.7472   -0.1367 C   0  0  0  0  0  0  0  0  0  0  0  0
   -1.3500   -0.5427   -0.6449 C   0  0  0  0  0  0  0  0  0  0  0  0
   -0.5813    2.0417    0.0713 C   0  0  0  0  0  0  0  0  0  0  0  0
   -0.0025   -0.2481   -0.4372 C   0  0  0  0  0  0  0  0  0  0  0  0
    7.0363    1.8347    0.7958 C   0  0  0  0  0  0  0  0  0  0  0  0
   -5.8720   -0.5744    0.0909 C   0  0  0  0  0  0  0  0  0  0  0  0
   -4.2373    0.3015   -1.9931 C   0  0  0  0  0  0  0  0  0  0  0  0
    7.5060   -3.0168   -0.3590 C   0  0  0  0  0  0  0  0  0  0  0  0
   -6.3984   -0.4228   -1.1920 C   0  0  0  0  0  0  0  0  0  0  0  0
   -5.5810    0.0150   -2.2340 C   0  0  0  0  0  0  0  0  0  0  0  0
   -6.7556   -1.0337    1.1553 C   0  0  0  0  0  0  0  0  0  0  0  0
    4.7949   -2.9095   -0.6067 H   0  0  0  0  0  0  0  0  0  0  0  0
    8.2775   -0.5321    0.3379 H   0  0  0  0  0  0  0  0  0  0  0  0
    1.8894    2.3280    0.3900 H   0  0  0  0  0  0  0  0  0  0  0  0
   -2.6666    2.5367   -0.0151 H   0  0  0  0  0  0  0  0  0  0  0  0
   -1.6331   -1.5552   -0.9232 H   0  0  0  0  0  0  0  0  0  0  0  0
    0.7130   -1.0526   -0.5644 H   0  0  0  0  0  0  0  0  0  0  0  0
    7.7503    2.1554    0.0302 H   0  0  0  0  0  0  0  0  0  0  0  0
    6.2889    2.6263    0.9091 H   0  0  0  0  0  0  0  0  0  0  0  0
    7.5633    1.7321    1.7499 H   0  0  0  0  0  0  0  0  0  0  0  0
   -3.6158    0.6418   -2.8183 H   0  0  0  0  0  0  0  0  0  0  0  0
    7.7017   -3.5085    0.5991 H   0  0  0  0  0  0  0  0  0  0  0  0
    7.0431   -3.7431   -1.0356 H   0  0  0  0  0  0  0  0  0  0  0  0
    8.4613   -2.7245   -0.8082 H   0  0  0  0  0  0  0  0  0  0  0  0
   -7.4440   -0.6422   -1.3928 H   0  0  0  0  0  0  0  0  0  0  0  0
   -5.9909    0.1331   -3.2328 H   0  0  0  0  0  0  0  0  0  0  0  0
   -3.0301   -0.2427    1.8314 H   0  0  0  0  0  0  0  0  0  0  0  0
   -4.5930   -0.7634    2.3919 H   0  0  0  0  0  0  0  0  0  0  0  0
   -7.4556   -2.7801    2.0899 H   0  0  0  0  0  0  0  0  0  0  0  0
   -6.3262   -3.0735    0.8126 H   0  0  0  0  0  0  0  0  0  0  0  0
  1 21  1  0  0  0  0
  2  8  1  0  0  0  0
  2 16  1  0  0  0  0
  3 29  2  0  0  0  0
  4 15  1  0  0  0  0
  4 16  1  0  0  0  0
  4 32  1  0  0  0  0
  5  9  1  0  0  0  0
  5 16  2  0  0  0  0
  6 18  1  0  0  0  0
  6 45  1  0  0  0  0
  6 46  1  0  0  0  0
  7 29  1  0  0  0  0
  7 47  1  0  0  0  0
  7 48  1  0  0  0  0
  8  9  1  0  0  0  0
  8 10  2  0  0  0  0
  9 14  2  0  0  0  0
 10 17  1  0  0  0  0
 10 23  1  0  0  0  0
 11 12  1  0  0  0  0
 11 19  2  0  0  0  0
 11 20  1  0  0  0  0
 12 18  2  0  0  0  0
 12 25  1  0  0  0  0
 13 14  1  0  0  0  0
 13 17  2  0  0  0  0
 13 26  1  0  0  0  0
 14 30  1  0  0  0  0
 15 21  2  0  0  0  0
 15 22  1  0  0  0  0
 17 31  1  0  0  0  0
 18 24  1  0  0  0  0
 19 21  1  0  0  0  0
 19 33  1  0  0  0  0
 20 22  2  0  0  0  0
 20 34  1  0  0  0  0
 22 35  1  0  0  0  0
 23 36  1  0  0  0  0
 23 37  1  0  0  0  0
 23 38  1  0  0  0  0
 24 27  2  0  0  0  0
 24 29  1  0  0  0  0
 25 28  2  0  0  0  0
 25 39  1  0  0  0  0
 26 40  1  0  0  0  0
 26 41  1  0  0  0  0
 26 42  1  0  0  0  0
 27 28  1  0  0  0  0
 27 43  1  0  0  0  0
 28 44  1  0  0  0  0
M  END
> <PUBCHEM_COMPOUND_CID>
49830900

> <PUBCHEM_CONFORMER_RMSD>
0.8

> <PUBCHEM_CONFORMER_DIVERSEORDER>
1
68
61
24
23
31
17
54
33
72
13
18
51
2
62
11
38
47
66
25
43
71
4
36
22
63
69
29
52
45
6
40
46
30
5
27
70
15
49
35
67
34
37
9
20
7
39
53
42
32
28
58
21
55
3
16
44
48
19
8
60
10
64
12
65
57
14
41
56
26
59
50

> <PUBCHEM_MMFF94_PARTIAL_CHARGES>
40
1 -0.19
10 -0.14
13 -0.14
14 -0.15
15 0.1
16 0.56
17 -0.15
18 0.1
19 -0.15
2 -0.28
20 -0.15
21 0.19
22 -0.15
23 0.14
24 0.09
25 -0.15
26 0.14
27 -0.15
28 -0.15
29 0.54
3 -0.57
30 0.15
31 0.15
32 0.4
33 0.15
34 0.15
35 0.15
39 0.15
4 -0.58
43 0.15
44 0.15
45 0.4
46 0.4
47 0.37
48 0.37
5 -0.57
6 -0.9
7 -0.8
8 0.14
9 0.23

> <PUBCHEM_EFFECTIVE_ROTOR_COUNT>
4

> <PUBCHEM_PHARMACOPHORE_FEATURES>
10
1 3 acceptor
1 4 donor
1 6 cation
1 6 donor
1 7 donor
3 4 5 16 cation
5 2 5 8 9 16 rings
6 11 15 19 20 21 22 rings
6 12 18 24 25 27 28 rings
6 8 9 10 13 14 17 rings

> <PUBCHEM_HEAVY_ATOM_COUNT>
29

> <PUBCHEM_ATOM_DEF_STEREO_COUNT>
0

> <PUBCHEM_ATOM_UDEF_STEREO_COUNT>
0

> <PUBCHEM_BOND_DEF_STEREO_COUNT>
0

> <PUBCHEM_BOND_UDEF_STEREO_COUNT>
0

> <PUBCHEM_ISOTOPIC_ATOM_COUNT>
0

> <PUBCHEM_COMPONENT_COUNT>
1

> <PUBCHEM_CACTVS_TAUTO_COUNT>
19

> <PUBCHEM_CONFORMER_ID>
02F85BF400000001

> <PUBCHEM_MMFF94_ENERGY>
103.1323

> <PUBCHEM_FEATURE_SELFOVERLAP>
50.865

> <PUBCHEM_SHAPE_FINGERPRINT>
10 15 17060346231969740257
10299344 5 17418091031500674254
10319926 262 14548729638555115287
12120059 9 18115846611982266539
12166972 35 17822015311056374596
12236239 1 17346597495670645749
12516196 113 18343016709512876396
12760667 363 18342735191565114605
13073987 5 18271523109722679288
13533116 47 18201714055844676936
13668630 136 18040435490304565962
13673619 4 17748829652980862189
13685833 64 18408887338778215170
13782708 43 17895193367957468267
14251764 18 17417810668651448268
14344974 204 18045229482058521619
14849402 71 17202758349238042128
14856354 85 15984817181947066701
15064986 266 18410580548431633380
15183329 4 17988917881743978518
15198563 99 17969212352604908708
15352257 5 18113339708375568323
15419008 47 17967243204831448861
15419008 91 17750496499112220492
15510794 2 18187077360443614655
15716309 27 18060418006053481317
1577012 14 17132113563148061596
17492 89 18056196861621170974
18335252 98 18335143116053374616
18643901 69 17458064889969324255
2026 5 18040151808179714595
21150785 3 13045946815460880299
21267235 1 18342741776662550470
21344244 181 18260834774495980946
21365058 113 17675929819555434741
21623969 137 18412267233158972830
21792961 116 18187920634860321949
22149856 69 18201444649483728832
22288116 15 14129351701907527977
2303208 19 18113335327903791861
23081809 10 17203321247403435020
23522609 53 17560255728894027336
23559900 14 18335974371944318672
23569943 247 18130218255708060527
24771750 20 17609787748705187236
2747138 104 18409172116627111272
3004659 81 18186514393895691820
3383291 50 18334575754441378699
34797466 226 17168151181866717844
44880568 143 17385438808583717125
46194498 28 17822003229846439412
5104073 3 18129657496788613336
5265222 85 16950572128876312171
54039377 194 18059577924528042702
58083652 198 18201991149464746113
6009941 240 18261954038693869589
636775 8 18334587811105499238
6691757 9 15913329126854186111
9962374 69 18271790359899314678
999808 66 18334297578584515419

> <PUBCHEM_SHAPE_MULTIPOLES>
557.87
24.5
2.31
1.34
8.33
0.05
-0.15
-13.13
3.91
3.34
0.36
-3.63
-0.26
2.2

> <PUBCHEM_SHAPE_SELFOVERLAP>
1243.43

> <PUBCHEM_SHAPE_VOLUME>
300.2

> <PUBCHEM_COORDINATE_TYPE>
2
5
10

$$$$
