49830579
  -OEChem-10052115193D

 82 87  0     1  0  0  0  0  0999 V2000
    8.3965    5.5031   -0.7681 O   0  0  0  0  0  0  0  0  0  0  0  0
    5.9232   -2.3395    0.7387 O   0  0  0  0  0  0  0  0  0  0  0  0
    0.4609   -3.0926   -3.3280 O   0  0  0  0  0  0  0  0  0  0  0  0
   -8.2741    1.8053   -0.4463 O   0  0  0  0  0  0  0  0  0  0  0  0
   -6.0488    2.4791    1.0763 O   0  0  0  0  0  0  0  0  0  0  0  0
   -9.6061    2.1288    2.0234 O   0  0  0  0  0  0  0  0  0  0  0  0
  -12.3393    1.6743    2.1291 O   0  0  0  0  0  0  0  0  0  0  0  0
    7.7439    2.8198   -0.2453 N   0  0  0  0  0  0  0  0  0  0  0  0
   -0.4323   -1.6798    0.6840 N   0  0  0  0  0  0  0  0  0  0  0  0
    1.3988   -3.0480   -1.3046 N   0  0  0  0  0  0  0  0  0  0  0  0
    7.9070    3.2872   -1.6263 C   0  0  0  0  0  0  0  0  0  0  0  0
    7.4257    3.8664    0.7358 C   0  0  0  0  0  0  0  0  0  0  0  0
    8.8516    4.4835   -1.6571 C   0  0  0  0  0  0  0  0  0  0  0  0
    8.3967    5.0312    0.5792 C   0  0  0  0  0  0  0  0  0  0  0  0
    7.2859    1.5216    0.0021 C   0  0  0  0  0  0  0  0  0  0  0  0
    0.8243   -2.2143    0.9673 C   0  0  0  0  0  0  0  0  0  0  0  0
    1.6628   -2.8415    0.0550 C   0  0  0  0  0  0  0  0  0  0  0  0
    3.3325   -3.2136    1.8136 C   0  0  0  0  0  0  0  0  0  0  0  0
   -1.2196   -1.5852   -0.4666 C   0  0  0  0  0  0  0  0  0  0  0  0
    4.6577   -3.7479    2.2359 C   0  0  0  0  0  0  0  0  0  0  0  0
    7.6882    0.8481    1.1555 C   0  0  0  0  0  0  0  0  0  0  0  0
    6.4265    0.9005   -0.9041 C   0  0  0  0  0  0  0  0  0  0  0  0
   -0.8938   -2.0542   -1.7396 C   0  0  0  0  0  0  0  0  0  0  0  0
    2.9135   -3.3361    0.4912 C   0  0  0  0  0  0  0  0  0  0  0  0
    5.7878   -2.7219    2.1015 C   0  0  0  0  0  0  0  0  0  0  0  0
    6.3719   -1.0676    0.4961 C   0  0  0  0  0  0  0  0  0  0  0  0
   -3.3798   -0.7625   -1.3339 C   0  0  0  0  0  0  0  0  0  0  0  0
    1.2704   -2.1001    2.3079 C   0  0  0  0  0  0  0  0  0  0  0  0
    2.5050   -2.5907    2.7293 C   0  0  0  0  0  0  0  0  0  0  0  0
   -2.4740   -0.9410   -0.2923 C   0  0  0  0  0  0  0  0  0  0  0  0
    7.2312   -0.4464    1.4025 C   0  0  0  0  0  0  0  0  0  0  0  0
    5.9696   -0.3942   -0.6572 C   0  0  0  0  0  0  0  0  0  0  0  0
    0.3532   -2.7511   -2.1432 C   0  0  0  0  0  0  0  0  0  0  0  0
   -1.8292   -1.8638   -2.7895 C   0  0  0  0  0  0  0  0  0  0  0  0
   -4.6429   -0.0983   -1.1017 C   0  0  0  0  0  0  0  0  0  0  0  0
   -3.0541   -1.2280   -2.5917 C   0  0  0  0  0  0  0  0  0  0  0  0
   -4.7445    0.8809   -0.1133 C   0  0  0  0  0  0  0  0  0  0  0  0
   -5.7594   -0.4356   -1.8665 C   0  0  0  0  0  0  0  0  0  0  0  0
   -5.9626    1.5227    0.1100 C   0  0  0  0  0  0  0  0  0  0  0  0
   -7.0793    1.1852   -0.6548 C   0  0  0  0  0  0  0  0  0  0  0  0
   -6.9777    0.2059   -1.6430 C   0  0  0  0  0  0  0  0  0  0  0  0
   -9.3759    0.9800   -0.0728 C   0  0  0  0  0  0  0  0  0  0  0  0
  -10.3175    1.7565    0.8406 C   0  0  1  0  0  0  0  0  0  0  0  0
  -11.5126    0.9095    1.2581 C   0  0  0  0  0  0  0  0  0  0  0  0
   -4.8613    2.7644    1.8130 C   0  0  0  0  0  0  0  0  0  0  0  0
    8.3188    2.4989   -2.2675 H   0  0  0  0  0  0  0  0  0  0  0  0
    6.9297    3.5886   -2.0229 H   0  0  0  0  0  0  0  0  0  0  0  0
    6.4000    4.2114    0.5559 H   0  0  0  0  0  0  0  0  0  0  0  0
    7.4799    3.4993    1.7664 H   0  0  0  0  0  0  0  0  0  0  0  0
    8.8853    4.9068   -2.6660 H   0  0  0  0  0  0  0  0  0  0  0  0
    9.8735    4.1927   -1.3850 H   0  0  0  0  0  0  0  0  0  0  0  0
    9.4157    4.7434    0.8649 H   0  0  0  0  0  0  0  0  0  0  0  0
    8.0924    5.8603    1.2257 H   0  0  0  0  0  0  0  0  0  0  0  0
    4.8972   -4.6312    1.6293 H   0  0  0  0  0  0  0  0  0  0  0  0
    4.6063   -4.1001    3.2737 H   0  0  0  0  0  0  0  0  0  0  0  0
    8.3728    1.3083    1.8635 H   0  0  0  0  0  0  0  0  0  0  0  0
    6.0814    1.4001   -1.8048 H   0  0  0  0  0  0  0  0  0  0  0  0
    3.5741   -3.8289   -0.2222 H   0  0  0  0  0  0  0  0  0  0  0  0
   -0.8731   -1.2648    1.5013 H   0  0  0  0  0  0  0  0  0  0  0  0
    5.5437   -1.8668    2.7459 H   0  0  0  0  0  0  0  0  0  0  0  0
    6.7278   -3.1721    2.4408 H   0  0  0  0  0  0  0  0  0  0  0  0
    0.6372   -1.6131    3.0491 H   0  0  0  0  0  0  0  0  0  0  0  0
   -2.7279   -0.6173    0.7172 H   0  0  0  0  0  0  0  0  0  0  0  0
    2.8012   -2.4762    3.7680 H   0  0  0  0  0  0  0  0  0  0  0  0
    2.1505   -3.5291   -1.7954 H   0  0  0  0  0  0  0  0  0  0  0  0
    7.5936   -0.9471    2.2954 H   0  0  0  0  0  0  0  0  0  0  0  0
    5.2970   -0.8723   -1.3642 H   0  0  0  0  0  0  0  0  0  0  0  0
   -1.6202   -2.2055   -3.8020 H   0  0  0  0  0  0  0  0  0  0  0  0
   -3.6992   -1.0976   -3.4558 H   0  0  0  0  0  0  0  0  0  0  0  0
   -3.8524    1.1563    0.4356 H   0  0  0  0  0  0  0  0  0  0  0  0
   -5.7345   -1.2105   -2.6279 H   0  0  0  0  0  0  0  0  0  0  0  0
   -7.8388   -0.0657   -2.2476 H   0  0  0  0  0  0  0  0  0  0  0  0
   -9.9029    0.6688   -0.9819 H   0  0  0  0  0  0  0  0  0  0  0  0
   -9.0142    0.0837    0.4493 H   0  0  0  0  0  0  0  0  0  0  0  0
  -10.6413    2.6906    0.3697 H   0  0  0  0  0  0  0  0  0  0  0  0
  -11.1932    0.0167    1.8060 H   0  0  0  0  0  0  0  0  0  0  0  0
  -12.1042    0.6080    0.3882 H   0  0  0  0  0  0  0  0  0  0  0  0
   -5.1167    3.5375    2.5455 H   0  0  0  0  0  0  0  0  0  0  0  0
   -4.0788    3.1844    1.1717 H   0  0  0  0  0  0  0  0  0  0  0  0
   -4.5170    1.8935    2.3813 H   0  0  0  0  0  0  0  0  0  0  0  0
   -9.2922    1.3153    2.4540 H   0  0  0  0  0  0  0  0  0  0  0  0
  -13.0915    1.1097    2.3761 H   0  0  0  0  0  0  0  0  0  0  0  0
  1 13  1  0  0  0  0
  1 14  1  0  0  0  0
  2 25  1  0  0  0  0
  2 26  1  0  0  0  0
  3 33  2  0  0  0  0
  4 40  1  0  0  0  0
  4 42  1  0  0  0  0
  5 39  1  0  0  0  0
  5 45  1  0  0  0  0
  6 43  1  0  0  0  0
  6 81  1  0  0  0  0
  7 44  1  0  0  0  0
  7 82  1  0  0  0  0
  8 11  1  0  0  0  0
  8 12  1  0  0  0  0
  8 15  1  0  0  0  0
  9 16  1  0  0  0  0
  9 19  1  0  0  0  0
  9 59  1  0  0  0  0
 10 17  1  0  0  0  0
 10 33  1  0  0  0  0
 10 65  1  0  0  0  0
 11 13  1  0  0  0  0
 11 46  1  0  0  0  0
 11 47  1  0  0  0  0
 12 14  1  0  0  0  0
 12 48  1  0  0  0  0
 12 49  1  0  0  0  0
 13 50  1  0  0  0  0
 13 51  1  0  0  0  0
 14 52  1  0  0  0  0
 14 53  1  0  0  0  0
 15 21  2  0  0  0  0
 15 22  1  0  0  0  0
 16 17  2  0  0  0  0
 16 28  1  0  0  0  0
 17 24  1  0  0  0  0
 18 20  1  0  0  0  0
 18 24  2  0  0  0  0
 18 29  1  0  0  0  0
 19 23  2  0  0  0  0
 19 30  1  0  0  0  0
 20 25  1  0  0  0  0
 20 54  1  0  0  0  0
 20 55  1  0  0  0  0
 21 31  1  0  0  0  0
 21 56  1  0  0  0  0
 22 32  2  0  0  0  0
 22 57  1  0  0  0  0
 23 33  1  0  0  0  0
 23 34  1  0  0  0  0
 24 58  1  0  0  0  0
 25 60  1  0  0  0  0
 25 61  1  0  0  0  0
 26 31  2  0  0  0  0
 26 32  1  0  0  0  0
 27 30  2  0  0  0  0
 27 35  1  0  0  0  0
 27 36  1  0  0  0  0
 28 29  2  0  0  0  0
 28 62  1  0  0  0  0
 29 64  1  0  0  0  0
 30 63  1  0  0  0  0
 31 66  1  0  0  0  0
 32 67  1  0  0  0  0
 34 36  2  0  0  0  0
 34 68  1  0  0  0  0
 35 37  2  0  0  0  0
 35 38  1  0  0  0  0
 36 69  1  0  0  0  0
 37 39  1  0  0  0  0
 37 70  1  0  0  0  0
 38 41  2  0  0  0  0
 38 71  1  0  0  0  0
 39 40  2  0  0  0  0
 40 41  1  0  0  0  0
 41 72  1  0  0  0  0
 42 43  1  0  0  0  0
 42 73  1  0  0  0  0
 42 74  1  0  0  0  0
 43 44  1  0  0  0  0
 43 75  1  0  0  0  0
 44 76  1  0  0  0  0
 44 77  1  0  0  0  0
 45 78  1  0  0  0  0
 45 79  1  0  0  0  0
 45 80  1  0  0  0  0
M  END
> <PUBCHEM_COMPOUND_CID>
49830579

> <PUBCHEM_CONFORMER_RMSD>
1.2

> <PUBCHEM_CONFORMER_DIVERSEORDER>
6
14
35
50
63
61
37
29
13
38
19
52
26
8
56
58
30
34
16
45
49
42
39
64
44
46
9
25
54
32
57
27
41
59
33
36
5
53
62
51
2
15
40
24
55
22
18
60
43
10
11
20
31
3
47
17
28
23
7
12
48
21
4
1

> <PUBCHEM_MMFF94_PARTIAL_CHARGES>
60
1 -0.56
10 -0.55
11 0.37
12 0.37
13 0.28
14 0.28
15 0.1
16 0.1
17 0.12
18 -0.14
19 0.1
2 -0.36
20 0.14
21 -0.15
22 -0.15
23 0.09
24 -0.15
25 0.28
26 0.08
28 -0.15
29 -0.15
3 -0.57
30 -0.15
31 -0.15
32 -0.15
33 0.54
34 -0.15
36 -0.15
37 -0.15
38 -0.15
39 0.08
4 -0.36
40 0.08
41 -0.15
42 0.28
43 0.28
44 0.28
45 0.28
5 -0.36
56 0.15
57 0.15
58 0.15
59 0.4
6 -0.68
62 0.15
63 0.15
64 0.15
65 0.37
66 0.15
67 0.15
68 0.15
69 0.15
7 -0.68
70 0.15
71 0.15
72 0.15
8 -0.84
81 0.4
82 0.4
9 -0.6

> <PUBCHEM_EFFECTIVE_ROTOR_COUNT>
12.6

> <PUBCHEM_PHARMACOPHORE_FEATURES>
19
1 1 acceptor
1 10 donor
1 2 acceptor
1 3 acceptor
1 4 acceptor
1 5 acceptor
1 6 acceptor
1 6 donor
1 7 acceptor
1 7 donor
1 8 cation
1 9 cation
1 9 donor
6 1 8 11 12 13 14 rings
6 15 21 22 26 31 32 rings
6 16 17 18 24 28 29 rings
6 19 23 27 30 34 36 rings
6 35 37 38 39 40 41 rings
7 9 10 16 17 19 23 33 rings

> <PUBCHEM_HEAVY_ATOM_COUNT>
45

> <PUBCHEM_ATOM_DEF_STEREO_COUNT>
0

> <PUBCHEM_ATOM_UDEF_STEREO_COUNT>
1

> <PUBCHEM_BOND_DEF_STEREO_COUNT>
0

> <PUBCHEM_BOND_UDEF_STEREO_COUNT>
0

> <PUBCHEM_ISOTOPIC_ATOM_COUNT>
0

> <PUBCHEM_COMPONENT_COUNT>
1

> <PUBCHEM_CACTVS_TAUTO_COUNT>
15

> <PUBCHEM_CONFORMER_ID>
02F85AB300000006

> <PUBCHEM_MMFF94_ENERGY>
198.8919

> <PUBCHEM_FEATURE_SELFOVERLAP>
96.458

> <PUBCHEM_SHAPE_FINGERPRINT>
10556698 54 17702375334221337160
10675989 125 18260539044975566152
11399510 152 15142337189427362258
11409948 35 10231754483612074689
11828042 207 17697023001754140232
11966995 178 18261961752244045662
12013929 112 13830133871995299169
12061779 8 18340760551061299078
12125137 17 18413672404645234057
12133447 93 16200139985838412779
13383665 225 17632298956893272455
15131766 46 18262502793373884246
15152005 1 9942994160653829048
15392192 104 16371020580779016862
15773879 343 18343299296987032768
15840311 113 18336827498921343446
16992779 147 18113887261973403146
19304671 126 18411423938980996830
19309040 13 18336258059842387886
20691028 202 18043244855480201140
21792964 463 18128537063773888314
21792965 215 17749122105793359145
23522609 53 18343576322239973819
3418910 222 18059293167985256585
3525247 18 17763174045081940080
4112364 45 18335416846735013886
4258327 124 18272365369773172015
474113 269 8718827596057141291
50742298 180 15647041665392460196
5911458 16 18342168952067709982
6204607 403 18412830192166890121
9962374 69 15141260806299299443

> <PUBCHEM_SHAPE_MULTIPOLES>
870.05
38.48
6.3
2.79
57.87
5.25
0.6
56.26
-14.11
-19.97
-0.81
1.51
-1.92
-8.53

> <PUBCHEM_SHAPE_SELFOVERLAP>
1894.66

> <PUBCHEM_SHAPE_VOLUME>
470.3

> <PUBCHEM_COORDINATE_TYPE>
2
5
10

$$$$
