44364050
  -OEChem-10062121593D

 46 53  0     1  0  0  0  0  0999 V2000
    2.3036   -3.8305    0.1044 O   0  0  0  0  0  0  0  0  0  0  0  0
   -2.2991   -3.8324    0.1089 O   0  0  0  0  0  0  0  0  0  0  0  0
    1.4754    1.5965   -0.1702 N   0  0  0  0  0  0  0  0  0  0  0  0
   -1.4765    1.5952   -0.1708 N   0  0  0  0  0  0  0  0  0  0  0  0
   -0.0002    3.1939   -1.0820 N   0  0  0  0  0  0  0  0  0  0  0  0
    0.0024   -4.2118    0.1269 N   0  0  0  0  0  0  0  0  0  0  0  0
    1.1512    3.0053   -0.2201 C   0  0  1  0  0  0  0  0  0  0  0  0
   -1.1553    3.0046   -0.2251 C   0  0  2  0  0  0  0  0  0  0  0  0
    0.7560    3.5724    1.1371 C   0  0  0  0  0  0  0  0  0  0  0  0
   -0.7670    3.5793    1.1305 C   0  0  0  0  0  0  0  0  0  0  0  0
    0.7113    0.4638   -0.1070 C   0  0  0  0  0  0  0  0  0  0  0  0
   -0.7111    0.4633   -0.1068 C   0  0  0  0  0  0  0  0  0  0  0  0
    1.3354   -0.8425   -0.0395 C   0  0  0  0  0  0  0  0  0  0  0  0
   -1.3339   -0.8437   -0.0387 C   0  0  0  0  0  0  0  0  0  0  0  0
    2.7681    1.0686   -0.1143 C   0  0  0  0  0  0  0  0  0  0  0  0
   -2.7687    1.0658   -0.1141 C   0  0  0  0  0  0  0  0  0  0  0  0
    2.7207   -0.3585   -0.0505 C   0  0  0  0  0  0  0  0  0  0  0  0
   -2.7197   -0.3612   -0.0500 C   0  0  0  0  0  0  0  0  0  0  0  0
    0.6919   -2.0738    0.0182 C   0  0  0  0  0  0  0  0  0  0  0  0
   -0.6892   -2.0743    0.0188 C   0  0  0  0  0  0  0  0  0  0  0  0
    4.0025    1.7516   -0.1086 C   0  0  0  0  0  0  0  0  0  0  0  0
   -4.0040    1.7475   -0.1089 C   0  0  0  0  0  0  0  0  0  0  0  0
    1.1490   -3.4536    0.0874 C   0  0  0  0  0  0  0  0  0  0  0  0
   -1.1449   -3.4546    0.0893 C   0  0  0  0  0  0  0  0  0  0  0  0
    3.9592   -1.0479    0.0008 C   0  0  0  0  0  0  0  0  0  0  0  0
   -3.9574   -1.0519    0.0007 C   0  0  0  0  0  0  0  0  0  0  0  0
    5.1928    1.0265   -0.0541 C   0  0  0  0  0  0  0  0  0  0  0  0
   -5.1933    1.0211   -0.0554 C   0  0  0  0  0  0  0  0  0  0  0  0
    5.1735   -0.3566   -0.0029 C   0  0  0  0  0  0  0  0  0  0  0  0
   -5.1726   -0.3620   -0.0040 C   0  0  0  0  0  0  0  0  0  0  0  0
    2.0102    3.5376   -0.6375 H   0  0  0  0  0  0  0  0  0  0  0  0
   -2.0138    3.5329   -0.6489 H   0  0  0  0  0  0  0  0  0  0  0  0
    1.1189    4.6020    1.2417 H   0  0  0  0  0  0  0  0  0  0  0  0
    1.1494    2.9921    1.9788 H   0  0  0  0  0  0  0  0  0  0  0  0
   -1.1734    3.0104    1.9738 H   0  0  0  0  0  0  0  0  0  0  0  0
   -1.1211    4.6131    1.2224 H   0  0  0  0  0  0  0  0  0  0  0  0
    0.0001    4.1618   -1.4074 H   0  0  0  0  0  0  0  0  0  0  0  0
    4.0457    2.8361   -0.1443 H   0  0  0  0  0  0  0  0  0  0  0  0
   -4.0483    2.8320   -0.1449 H   0  0  0  0  0  0  0  0  0  0  0  0
    3.9904   -2.1308    0.0487 H   0  0  0  0  0  0  0  0  0  0  0  0
   -3.9875   -2.1348    0.0485 H   0  0  0  0  0  0  0  0  0  0  0  0
    0.0028   -5.2245    0.1778 H   0  0  0  0  0  0  0  0  0  0  0  0
    6.1426    1.5544   -0.0517 H   0  0  0  0  0  0  0  0  0  0  0  0
   -6.1438    1.5479   -0.0537 H   0  0  0  0  0  0  0  0  0  0  0  0
    6.1073   -0.9106    0.0390 H   0  0  0  0  0  0  0  0  0  0  0  0
   -6.1057   -0.9171    0.0372 H   0  0  0  0  0  0  0  0  0  0  0  0
  1 23  2  0  0  0  0
  2 24  2  0  0  0  0
  3  7  1  0  0  0  0
  3 11  1  0  0  0  0
  3 15  1  0  0  0  0
  4  8  1  0  0  0  0
  4 12  1  0  0  0  0
  4 16  1  0  0  0  0
  5  7  1  0  0  0  0
  5  8  1  0  0  0  0
  5 37  1  0  0  0  0
  6 23  1  0  0  0  0
  6 24  1  0  0  0  0
  6 42  1  0  0  0  0
  7  9  1  0  0  0  0
  7 31  1  0  0  0  0
  8 10  1  0  0  0  0
  8 32  1  0  0  0  0
  9 10  1  0  0  0  0
  9 33  1  0  0  0  0
  9 34  1  0  0  0  0
 10 35  1  0  0  0  0
 10 36  1  0  0  0  0
 11 12  2  0  0  0  0
 11 13  1  0  0  0  0
 12 14  1  0  0  0  0
 13 17  1  0  0  0  0
 13 19  2  0  0  0  0
 14 18  1  0  0  0  0
 14 20  2  0  0  0  0
 15 17  1  0  0  0  0
 15 21  2  0  0  0  0
 16 18  1  0  0  0  0
 16 22  2  0  0  0  0
 17 25  2  0  0  0  0
 18 26  2  0  0  0  0
 19 20  1  0  0  0  0
 19 23  1  0  0  0  0
 20 24  1  0  0  0  0
 21 27  1  0  0  0  0
 21 38  1  0  0  0  0
 22 28  1  0  0  0  0
 22 39  1  0  0  0  0
 25 29  1  0  0  0  0
 25 40  1  0  0  0  0
 26 30  1  0  0  0  0
 26 41  1  0  0  0  0
 27 29  2  0  0  0  0
 27 43  1  0  0  0  0
 28 30  2  0  0  0  0
 28 44  1  0  0  0  0
 29 45  1  0  0  0  0
 30 46  1  0  0  0  0
M  END
> <PUBCHEM_COMPOUND_CID>
44364050

> <PUBCHEM_CONFORMER_RMSD>
0.6

> <PUBCHEM_CONFORMER_DIVERSEORDER>
1

> <PUBCHEM_MMFF94_PARTIAL_CHARGES>
36
1 -0.57
11 -0.05
12 -0.05
13 -0.01
14 -0.01
15 -0.15
16 -0.15
19 0.09
2 -0.57
20 0.09
21 -0.15
22 -0.15
23 0.54
24 0.54
25 -0.15
26 -0.15
27 -0.15
28 -0.15
29 -0.15
3 -0.04
30 -0.15
37 0.36
38 0.15
39 0.15
4 -0.04
40 0.15
41 0.15
42 0.37
43 0.15
44 0.15
45 0.15
46 0.15
5 -0.9
6 -0.49
7 0.53
8 0.53

> <PUBCHEM_EFFECTIVE_ROTOR_COUNT>
0.8

> <PUBCHEM_PHARMACOPHORE_FEATURES>
15
1 1 acceptor
1 2 acceptor
1 3 cation
1 4 cation
1 5 cation
1 5 donor
1 6 donor
5 3 11 13 15 17 rings
5 4 12 14 16 18 rings
5 5 7 8 9 10 rings
5 6 19 20 23 24 rings
6 11 12 13 14 19 20 rings
6 15 17 21 25 27 29 rings
6 16 18 22 26 28 30 rings
7 3 4 5 7 8 11 12 rings

> <PUBCHEM_HEAVY_ATOM_COUNT>
30

> <PUBCHEM_ATOM_DEF_STEREO_COUNT>
2

> <PUBCHEM_ATOM_UDEF_STEREO_COUNT>
0

> <PUBCHEM_BOND_DEF_STEREO_COUNT>
0

> <PUBCHEM_BOND_UDEF_STEREO_COUNT>
0

> <PUBCHEM_ISOTOPIC_ATOM_COUNT>
0

> <PUBCHEM_COMPONENT_COUNT>
1

> <PUBCHEM_CACTVS_TAUTO_COUNT>
2

> <PUBCHEM_CONFORMER_ID>
02A4F11200000001

> <PUBCHEM_MMFF94_ENERGY>
119.7186

> <PUBCHEM_FEATURE_SELFOVERLAP>
78.002

> <PUBCHEM_SHAPE_FINGERPRINT>
10190108 129 17834715649599135745
10675989 125 17541932093145245893
10693767 8 18058713746283765575
10906281 52 18269575934110603124
10967382 1 18410292497348088287
1100329 8 18339361997223101593
11513181 2 17986387785319280359
11578080 2 16842188989801803626
12788726 201 18342748390553879896
12838862 33 18338215129233581621
13140716 1 18267866270753978504
13402501 40 18410292518801845221
138480 1 17329427246928883350
13911987 19 18335424573048824636
14178342 30 17474376354213088128
14223421 5 18048877385990239740
14466204 15 18337950207303371218
14790565 3 18410300206762202260
15042514 8 18337109064076360762
15196674 1 18410011039493393477
15927050 60 17764872789496184108
16728300 4 17462256081658838434
19591789 44 18337954609749902543
19930381 70 18265613186908705891
20028762 73 18129384972286857655
20510252 161 18342175523357363920
20600515 1 18339932613857216284
20642791 178 18261125105378588453
20642791 35 17979642234280301567
20775438 99 16833430344753080183
20905425 154 18053665772061390758
21267235 1 18410301306278598108
21421861 104 17973165019770430681
22113638 7 18336826493381700004
23559900 14 18270398412554580376
283562 15 18341333271396068032
3178227 256 18337123358006668449
335352 9 18410293648351623916
350125 39 18122345666716640922
3882209 13 16747299612266095227
392239 28 18340772533207827304
469060 322 18339652122380563368
484989 97 18120370123948426847
5171179 24 17769089390897425176
5486654 2 18410579491700828292
59755656 215 18339084787655610774
6004065 56 18199736098365501285

> <PUBCHEM_SHAPE_MULTIPOLES>
585.72
8.46
5.42
0.73
0
2.49
-0.06
-1.14
0.36
0
-0.73
0
-0.43
0

> <PUBCHEM_SHAPE_SELFOVERLAP>
1390.614

> <PUBCHEM_SHAPE_VOLUME>
291.1

> <PUBCHEM_COORDINATE_TYPE>
2
5
10

$$$$
