11560418
  -OEChem-10052120443D

 44 48  0     0  0  0  0  0  0999 V2000
   -5.5835    1.1737   -0.3119 S   0  0  0  0  0  0  0  0  0  0  0  0
    5.1257   -0.7903    1.0928 O   0  0  0  0  0  0  0  0  0  0  0  0
   -5.2498    4.0948    0.3211 O   0  0  0  0  0  0  0  0  0  0  0  0
   -4.5365   -2.6763   -0.8230 N   0  0  0  0  0  0  0  0  0  0  0  0
    2.8611   -1.1506    1.2232 N   0  0  0  0  0  0  0  0  0  0  0  0
   -6.6751   -1.6881   -1.1332 N   0  0  0  0  0  0  0  0  0  0  0  0
    3.8460    0.2823   -0.4395 N   0  0  0  0  0  0  0  0  0  0  0  0
   -3.0435    4.0293    0.8488 N   0  0  0  0  0  0  0  0  0  0  0  0
   -3.4198   -0.2208   -0.0761 C   0  0  0  0  0  0  0  0  0  0  0  0
   -2.6201   -1.3792   -0.1154 C   0  0  0  0  0  0  0  0  0  0  0  0
   -1.2208   -1.3199    0.2264 C   0  0  0  0  0  0  0  0  0  0  0  0
   -4.7698   -0.3410   -0.4182 C   0  0  0  0  0  0  0  0  0  0  0  0
   -3.0905    1.1330    0.2681 C   0  0  0  0  0  0  0  0  0  0  0  0
   -3.2354   -2.5615   -0.4933 C   0  0  0  0  0  0  0  0  0  0  0  0
   -0.2668   -1.0637   -0.7618 C   0  0  0  0  0  0  0  0  0  0  0  0
   -0.8115   -1.5195    1.5474 C   0  0  0  0  0  0  0  0  0  0  0  0
   -5.3144   -1.5721   -0.7890 C   0  0  0  0  0  0  0  0  0  0  0  0
   -4.1670    1.9837    0.1818 C   0  0  0  0  0  0  0  0  0  0  0  0
    1.4919   -1.2073    0.8886 C   0  0  0  0  0  0  0  0  0  0  0  0
    1.0872   -1.0076   -0.4313 C   0  0  0  0  0  0  0  0  0  0  0  0
    0.5425   -1.4634    1.8780 C   0  0  0  0  0  0  0  0  0  0  0  0
    3.8972   -0.5254    0.5843 C   0  0  0  0  0  0  0  0  0  0  0  0
    5.9540   -0.0582    0.2911 C   0  0  0  0  0  0  0  0  0  0  0  0
    5.1676    0.5965   -0.6453 C   0  0  0  0  0  0  0  0  0  0  0  0
   -4.2215    3.3851    0.4445 C   0  0  0  0  0  0  0  0  0  0  0  0
    7.3379    0.0377    0.3687 C   0  0  0  0  0  0  0  0  0  0  0  0
    5.7885    1.4212   -1.5941 C   0  0  0  0  0  0  0  0  0  0  0  0
    7.9418    0.8643   -0.5849 C   0  0  0  0  0  0  0  0  0  0  0  0
    7.1849    1.5433   -1.5477 C   0  0  0  0  0  0  0  0  0  0  0  0
   -2.0974    1.4476    0.5641 H   0  0  0  0  0  0  0  0  0  0  0  0
   -2.6782   -3.4931   -0.5453 H   0  0  0  0  0  0  0  0  0  0  0  0
   -0.5645   -0.9115   -1.7968 H   0  0  0  0  0  0  0  0  0  0  0  0
   -1.5382   -1.7199    2.3314 H   0  0  0  0  0  0  0  0  0  0  0  0
    1.7954   -0.8339   -1.2350 H   0  0  0  0  0  0  0  0  0  0  0  0
    0.8443   -1.6197    2.9105 H   0  0  0  0  0  0  0  0  0  0  0  0
    3.0765   -1.6236    2.0976 H   0  0  0  0  0  0  0  0  0  0  0  0
   -7.0412   -2.5924   -1.3981 H   0  0  0  0  0  0  0  0  0  0  0  0
   -7.2766   -0.8756   -1.1156 H   0  0  0  0  0  0  0  0  0  0  0  0
    7.9141   -0.4916    1.1172 H   0  0  0  0  0  0  0  0  0  0  0  0
    5.2119    1.9518   -2.3445 H   0  0  0  0  0  0  0  0  0  0  0  0
    9.0229    0.9819   -0.5780 H   0  0  0  0  0  0  0  0  0  0  0  0
    7.6884    2.1773   -2.2734 H   0  0  0  0  0  0  0  0  0  0  0  0
   -2.1588    3.5488    0.9708 H   0  0  0  0  0  0  0  0  0  0  0  0
   -3.0435    5.0264    1.0373 H   0  0  0  0  0  0  0  0  0  0  0  0
  1 12  1  0  0  0  0
  1 18  1  0  0  0  0
  2 22  1  0  0  0  0
  2 23  1  0  0  0  0
  3 25  2  0  0  0  0
  4 14  1  0  0  0  0
  4 17  2  0  0  0  0
  5 19  1  0  0  0  0
  5 22  1  0  0  0  0
  5 36  1  0  0  0  0
  6 17  1  0  0  0  0
  6 37  1  0  0  0  0
  6 38  1  0  0  0  0
  7 22  2  0  0  0  0
  7 24  1  0  0  0  0
  8 25  1  0  0  0  0
  8 43  1  0  0  0  0
  8 44  1  0  0  0  0
  9 10  1  0  0  0  0
  9 12  2  0  0  0  0
  9 13  1  0  0  0  0
 10 11  1  0  0  0  0
 10 14  2  0  0  0  0
 11 15  2  0  0  0  0
 11 16  1  0  0  0  0
 12 17  1  0  0  0  0
 13 18  2  0  0  0  0
 13 30  1  0  0  0  0
 14 31  1  0  0  0  0
 15 20  1  0  0  0  0
 15 32  1  0  0  0  0
 16 21  2  0  0  0  0
 16 33  1  0  0  0  0
 18 25  1  0  0  0  0
 19 20  2  0  0  0  0
 19 21  1  0  0  0  0
 20 34  1  0  0  0  0
 21 35  1  0  0  0  0
 23 24  1  0  0  0  0
 23 26  2  0  0  0  0
 24 27  2  0  0  0  0
 26 28  1  0  0  0  0
 26 39  1  0  0  0  0
 27 29  1  0  0  0  0
 27 40  1  0  0  0  0
 28 29  2  0  0  0  0
 28 41  1  0  0  0  0
 29 42  1  0  0  0  0
M  END
> <PUBCHEM_COMPOUND_CID>
11560418

> <PUBCHEM_CONFORMER_RMSD>
0.8

> <PUBCHEM_CONFORMER_DIVERSEORDER>
1
30
14
10
19
17
23
32
5
22
7
9
16
11
20
15
12
21
33
18
6
29
8
26
3
31
4
2
13
27
24
25
28
34

> <PUBCHEM_MMFF94_PARTIAL_CHARGES>
41
1 -0.08
12 0.04
13 -0.15
14 0.16
15 -0.15
16 -0.15
17 0.41
18 -0.05
19 0.1
2 -0.28
20 -0.15
21 -0.15
22 0.56
23 0.14
24 0.23
25 0.71
26 -0.15
27 -0.15
28 -0.15
29 -0.15
3 -0.57
30 0.15
31 0.15
32 0.15
33 0.15
34 0.15
35 0.15
36 0.4
37 0.4
38 0.4
39 0.15
4 -0.62
40 0.15
41 0.15
42 0.15
43 0.37
44 0.37
5 -0.58
6 -0.9
7 -0.57
8 -0.8

> <PUBCHEM_EFFECTIVE_ROTOR_COUNT>
4

> <PUBCHEM_PHARMACOPHORE_FEATURES>
11
1 3 acceptor
1 5 donor
1 6 donor
1 8 donor
3 4 6 17 cation
3 5 7 22 cation
5 1 9 12 13 18 rings
5 2 7 22 23 24 rings
6 11 15 16 19 20 21 rings
6 23 24 26 27 28 29 rings
6 4 9 10 12 14 17 rings

> <PUBCHEM_HEAVY_ATOM_COUNT>
29

> <PUBCHEM_ATOM_DEF_STEREO_COUNT>
0

> <PUBCHEM_ATOM_UDEF_STEREO_COUNT>
0

> <PUBCHEM_BOND_DEF_STEREO_COUNT>
0

> <PUBCHEM_BOND_UDEF_STEREO_COUNT>
0

> <PUBCHEM_ISOTOPIC_ATOM_COUNT>
0

> <PUBCHEM_COMPONENT_COUNT>
1

> <PUBCHEM_CACTVS_TAUTO_COUNT>
18

> <PUBCHEM_CONFORMER_ID>
00B065E200000001

> <PUBCHEM_MMFF94_ENERGY>
85.2181

> <PUBCHEM_FEATURE_SELFOVERLAP>
56.007

> <PUBCHEM_SHAPE_FINGERPRINT>
10 15 13406794450202334462
10087517 78 18408040701871750501
10411042 1 18052815043191069255
10454371 7 18341618109369036140
10595046 47 18408600357632994730
10670039 82 18411414012114563673
10906281 52 17822306686534017086
11273773 42 18186525423023437876
11315181 36 17968094269949467399
11315621 246 17631722906820678463
11477941 20 18129933589728391541
11796584 16 8214144083605954154
11991303 11 16916501592373821646
12082328 90 18343581850353254278
12107183 9 17832977256964474178
12107698 1 18341611572196430389
12236239 1 18186795881140560954
12788726 201 18337941343229604091
12895837 130 18336552633830742289
13167372 99 18334013879062405504
13383665 225 18272098158836064821
13673619 4 17345753139666472467
13690498 29 17987510580128544623
13782708 43 16844436305902331327
14202776 33 18412538825631700623
14394314 77 18113621166489207029
14747281 78 16197640675734017037
14856354 85 18270119136247834343
15064981 113 18129367224875043806
15064981 194 17823997820378054647
15163728 17 18269847423256526599
15183329 4 18413109485309997298
15289351 153 18263081184732428884
15348495 7 11602826821779110822
15419008 47 17632574989255181081
15604295 49 18200026391707610832
1577012 14 18334012770538811088
15876981 60 18337111275894536421
16126227 98 18128544769626147313
16991971 28 18055902441835038023
16992752 21 18340767144105578191
16992828 155 17969214543497158829
17913733 40 15285356202468997936
21033650 10 18267890335830427254
21774942 28 18410014330609434516
21792961 116 17489593355235152038
21859007 373 18060124445872561880
22122407 14 18115039605545624000
23198884 109 18409449215269874562
23516275 100 17981030127362311544
23522609 53 17968675860530439372
23569914 152 15190246041390242372
249057 25 18188477008992239258
255183 451 17626090220906430903
2838139 119 18410294722626528824
34797466 226 17417530336594954970
3552219 110 18114468955111096791
394071 54 16732702758014729902
397830 11 11819289892332316462
4098825 35 18343024346476581294
44555599 121 18114184155529259148
445580 204 18335423465564251808
445580 37 18412266142421441230
44802255 64 17846503673080416566
46194498 28 17346032394060195136
5104073 3 16733546147994731664
550186 7 18059574638128650253
5911458 16 18260272923558009124
6058803 2 18119228585970948243
6201320 215 18201149950397958224
6327066 14 18193553368769347989
6328613 192 18186806915671030996
636775 72 18336265764866049360
6608658 132 18407759222705704021
6700243 42 17699320907349879087
7808743 9 18268987588637851641

> <PUBCHEM_SHAPE_MULTIPOLES>
564.01
21.01
3.46
1.31
30.39
3.93
0.13
8.62
-6.55
-7.81
0.52
0.84
-0.25
-3.52

> <PUBCHEM_SHAPE_SELFOVERLAP>
1266.125

> <PUBCHEM_SHAPE_VOLUME>
300.4

> <PUBCHEM_COORDINATE_TYPE>
2
5
10

$$$$
