24905295
  -OEChem-10052115143D

 35 37  0     0  0  0  0  0  0999 V2000
    5.7353    0.3201   -0.5022 Cl  0  0  0  0  0  0  0  0  0  0  0  0
    4.1238    0.3416    2.0339 O   0  0  0  0  0  0  0  0  0  0  0  0
   -2.1689    1.0101    0.0023 N   0  0  0  0  0  0  0  0  0  0  0  0
   -0.8845    1.4033   -0.0835 N   0  0  0  0  0  0  0  0  0  0  0  0
   -3.4783   -1.0232    0.1189 N   0  0  0  0  0  0  0  0  0  0  0  0
   -2.0648   -3.0106    0.0676 N   0  0  0  0  0  0  0  0  0  0  0  0
    0.3149   -2.8974   -0.0794 N   0  0  0  0  0  0  0  0  0  0  0  0
   -3.2158    2.0031    0.0490 C   0  0  0  0  0  0  0  0  0  0  0  0
   -2.3233   -0.3440    0.0359 C   0  0  0  0  0  0  0  0  0  0  0  0
   -1.0475   -0.8758   -0.0329 C   0  0  0  0  0  0  0  0  0  0  0  0
   -0.2066    0.2505   -0.1047 C   0  0  0  0  0  0  0  0  0  0  0  0
   -3.2479    2.8477   -1.2272 C   0  0  0  0  0  0  0  0  0  0  0  0
   -3.0931    2.8927    1.2886 C   0  0  0  0  0  0  0  0  0  0  0  0
    1.2317    0.2668   -0.1935 C   0  0  0  0  0  0  0  0  0  0  0  0
   -0.9385   -2.2623   -0.0149 C   0  0  0  0  0  0  0  0  0  0  0  0
    2.0024    0.2965    0.9687 C   0  0  0  0  0  0  0  0  0  0  0  0
    1.8531    0.2535   -1.4423 C   0  0  0  0  0  0  0  0  0  0  0  0
   -3.2478   -2.3539    0.1285 C   0  0  0  0  0  0  0  0  0  0  0  0
    3.3946    0.3125    0.8823 C   0  0  0  0  0  0  0  0  0  0  0  0
    3.2452    0.2697   -1.5287 C   0  0  0  0  0  0  0  0  0  0  0  0
    4.0160    0.2991   -0.3665 C   0  0  0  0  0  0  0  0  0  0  0  0
   -4.1708    1.4682    0.1173 H   0  0  0  0  0  0  0  0  0  0  0  0
   -2.3351    3.4426   -1.3427 H   0  0  0  0  0  0  0  0  0  0  0  0
   -4.0988    3.5370   -1.2131 H   0  0  0  0  0  0  0  0  0  0  0  0
   -3.3442    2.2109   -2.1136 H   0  0  0  0  0  0  0  0  0  0  0  0
   -2.1744    3.4895    1.2699 H   0  0  0  0  0  0  0  0  0  0  0  0
   -3.0785    2.2881    2.2022 H   0  0  0  0  0  0  0  0  0  0  0  0
   -3.9409    3.5829    1.3543 H   0  0  0  0  0  0  0  0  0  0  0  0
    1.5186    0.3066    1.9434 H   0  0  0  0  0  0  0  0  0  0  0  0
    1.2666    0.2300   -2.3577 H   0  0  0  0  0  0  0  0  0  0  0  0
   -4.1290   -2.9830    0.1938 H   0  0  0  0  0  0  0  0  0  0  0  0
    3.7145    0.2590   -2.5091 H   0  0  0  0  0  0  0  0  0  0  0  0
    1.1710   -2.3664   -0.1417 H   0  0  0  0  0  0  0  0  0  0  0  0
    0.3491   -3.9080   -0.0636 H   0  0  0  0  0  0  0  0  0  0  0  0
    3.5188    0.3465    2.7953 H   0  0  0  0  0  0  0  0  0  0  0  0
  1 21  1  0  0  0  0
  2 19  1  0  0  0  0
  2 35  1  0  0  0  0
  3  4  1  0  0  0  0
  3  8  1  0  0  0  0
  3  9  1  0  0  0  0
  4 11  2  0  0  0  0
  5  9  2  0  0  0  0
  5 18  1  0  0  0  0
  6 15  1  0  0  0  0
  6 18  2  0  0  0  0
  7 15  1  0  0  0  0
  7 33  1  0  0  0  0
  7 34  1  0  0  0  0
  8 12  1  0  0  0  0
  8 13  1  0  0  0  0
  8 22  1  0  0  0  0
  9 10  1  0  0  0  0
 10 11  1  0  0  0  0
 10 15  2  0  0  0  0
 11 14  1  0  0  0  0
 12 23  1  0  0  0  0
 12 24  1  0  0  0  0
 12 25  1  0  0  0  0
 13 26  1  0  0  0  0
 13 27  1  0  0  0  0
 13 28  1  0  0  0  0
 14 16  2  0  0  0  0
 14 17  1  0  0  0  0
 16 19  1  0  0  0  0
 16 29  1  0  0  0  0
 17 20  2  0  0  0  0
 17 30  1  0  0  0  0
 18 31  1  0  0  0  0
 19 21  2  0  0  0  0
 20 21  1  0  0  0  0
 20 32  1  0  0  0  0
M  END
> <PUBCHEM_COMPOUND_CID>
24905295

> <PUBCHEM_CONFORMER_RMSD>
0.6

> <PUBCHEM_CONFORMER_DIVERSEORDER>
1
4
5
3
6
2

> <PUBCHEM_MMFF94_PARTIAL_CHARGES>
25
1 -0.18
11 0.23
14 0.05
15 0.41
16 -0.15
17 -0.15
18 0.47
19 0.08
2 -0.53
20 -0.15
21 0.18
29 0.15
3 0.31
30 0.15
31 0.15
32 0.15
33 0.4
34 0.4
35 0.45
4 -0.71
5 -0.57
6 -0.62
7 -0.9
8 0.26
9 0.11

> <PUBCHEM_EFFECTIVE_ROTOR_COUNT>
2

> <PUBCHEM_PHARMACOPHORE_FEATURES>
10
1 2 donor
1 4 acceptor
1 7 cation
1 7 donor
3 3 5 9 cation
3 5 6 18 cation
3 8 12 13 hydrophobe
5 3 4 9 10 11 rings
6 14 16 17 19 20 21 rings
6 5 6 9 10 15 18 rings

> <PUBCHEM_HEAVY_ATOM_COUNT>
21

> <PUBCHEM_ATOM_DEF_STEREO_COUNT>
0

> <PUBCHEM_ATOM_UDEF_STEREO_COUNT>
0

> <PUBCHEM_BOND_DEF_STEREO_COUNT>
0

> <PUBCHEM_BOND_UDEF_STEREO_COUNT>
0

> <PUBCHEM_ISOTOPIC_ATOM_COUNT>
0

> <PUBCHEM_COMPONENT_COUNT>
1

> <PUBCHEM_CACTVS_TAUTO_COUNT>
15

> <PUBCHEM_CONFORMER_ID>
017C064F00000001

> <PUBCHEM_MMFF94_ENERGY>
48.6255

> <PUBCHEM_FEATURE_SELFOVERLAP>
51.025

> <PUBCHEM_SHAPE_FINGERPRINT>
10319926 262 18270099298315393352
10411042 1 17906175405701882207
10646746 165 18343019986920836032
11315181 36 18187365476283634428
11582403 64 17197652049655543608
11725454 13 17128415841161812720
12107183 9 18045775690217496242
12236239 1 17676487285009041710
12403259 415 17917713522025446080
12500047 106 18412261714531653172
12553582 1 18120942964573233635
12788726 201 18191320470367662755
13140716 1 18122634013867807411
13583140 156 17917419935320010398
13878862 14 16967736261755034969
14178342 30 18409445860588796826
14508225 48 18195236939924297349
15042514 8 18265341796842955475
16752209 62 18336540603226159495
16945 1 18410578426654277807
1741750 31 18341050705549963361
18186145 218 17988933227688409632
19049666 15 17916878932238073462
200 152 16443336624415237870
20510252 161 18343305906972446529
20645477 56 18411989035294952421
21033648 29 17418084430489485448
21065201 7 18412265047553063626
22149856 69 17830754063015698905
22182313 1 18265348218071712095
2334 1 18337957766841210383
23402539 116 18340766048002584215
23419403 2 17201055244871328521
23493267 7 18272090474633098352
23557571 272 18273221910626457692
23559900 14 18200319814992253190
23598291 2 17676779768055510924
2748010 2 18193290589589584711
283562 15 18411419544581067171
3091708 16 9127942670138966083
350125 39 18194132819749321211
4214541 1 18410578392373641340
469060 322 18336847354776426393
5104073 3 18410011018814668528
5265222 85 18198639894643584030
559249 180 18335420115685166942
573450 72 18260542334171421826
59755656 520 18129670673426607833
602551 16 18411982503182230906
6049 1 17988927829057040992
633830 44 17771348573918842653
7615 1 17894911875363201140
77492 1 17676205805663426252
81228 2 18338525256442967515
84936 182 17623565350665127041
9709674 26 18272100391712948934
9862522 239 17823409405853692613

> <PUBCHEM_SHAPE_MULTIPOLES>
403.27
8.77
3.09
1.24
9.36
0.92
-0.15
-3.12
-0.21
-5.38
-0.05
1
-0.61
0.08

> <PUBCHEM_SHAPE_SELFOVERLAP>
876.045

> <PUBCHEM_SHAPE_VOLUME>
222.5

> <PUBCHEM_COORDINATE_TYPE>
2
5
10

$$$$
