44237411
  -OEChem-10052120433D

 38 41  0     0  0  0  0  0  0999 V2000
   -0.4059   -1.4273   -0.3179 S   0  0  0  0  0  0  0  0  0  0  0  0
   -2.7714   -0.2428   -0.0866 N   0  0  0  0  0  0  0  0  0  0  0  0
   -0.8254    1.0647    0.1978 N   0  0  0  0  0  0  0  0  0  0  0  0
    7.4138   -0.6902   -0.1158 N   0  0  0  0  0  0  0  0  0  0  0  0
    0.9750   -0.4184   -0.0992 C   0  0  0  0  0  0  0  0  0  0  0  0
    0.5501    0.8863    0.1696 C   0  0  0  0  0  0  0  0  0  0  0  0
    3.2798    0.2506    0.0549 C   0  0  0  0  0  0  0  0  0  0  0  0
    2.3364   -0.7569   -0.1610 C   0  0  0  0  0  0  0  0  0  0  0  0
   -3.7417    0.8244    0.1288 C   0  0  0  0  0  0  0  0  0  0  0  0
   -1.4223   -0.0790   -0.0438 C   0  0  0  0  0  0  0  0  0  0  0  0
    1.5242    1.8855    0.3840 C   0  0  0  0  0  0  0  0  0  0  0  0
    2.8812    1.5554    0.3240 C   0  0  0  0  0  0  0  0  0  0  0  0
    4.6904   -0.0700   -0.0036 C   0  0  0  0  0  0  0  0  0  0  0  0
   -5.1435    0.2871    0.0454 C   0  0  0  0  0  0  0  0  0  0  0  0
   -5.8092    0.2631   -1.1801 C   0  0  0  0  0  0  0  0  0  0  0  0
   -5.7782   -0.1875    1.1931 C   0  0  0  0  0  0  0  0  0  0  0  0
    5.6088    0.8906   -0.4124 C   0  0  0  0  0  0  0  0  0  0  0  0
    5.1321   -1.3404    0.3494 C   0  0  0  0  0  0  0  0  0  0  0  0
   -7.1097   -0.2353   -1.2579 C   0  0  0  0  0  0  0  0  0  0  0  0
   -7.0787   -0.6860    1.1155 C   0  0  0  0  0  0  0  0  0  0  0  0
   -7.7444   -0.7098   -0.1101 C   0  0  0  0  0  0  0  0  0  0  0  0
    6.9470    0.5336   -0.4511 C   0  0  0  0  0  0  0  0  0  0  0  0
    6.4916   -1.5977    0.2767 C   0  0  0  0  0  0  0  0  0  0  0  0
    2.6123   -1.7787   -0.4032 H   0  0  0  0  0  0  0  0  0  0  0  0
   -3.6005    1.6152   -0.6184 H   0  0  0  0  0  0  0  0  0  0  0  0
   -3.5795    1.2870    1.1105 H   0  0  0  0  0  0  0  0  0  0  0  0
    1.2230    2.9064    0.6017 H   0  0  0  0  0  0  0  0  0  0  0  0
    3.5912    2.3531    0.5266 H   0  0  0  0  0  0  0  0  0  0  0  0
   -3.1438   -1.1684   -0.2848 H   0  0  0  0  0  0  0  0  0  0  0  0
   -5.3247    0.6283   -2.0818 H   0  0  0  0  0  0  0  0  0  0  0  0
   -5.2694   -0.1759    2.1533 H   0  0  0  0  0  0  0  0  0  0  0  0
    5.3308    1.8898   -0.7294 H   0  0  0  0  0  0  0  0  0  0  0  0
    4.4754   -2.1267    0.7052 H   0  0  0  0  0  0  0  0  0  0  0  0
   -7.6279   -0.2545   -2.2122 H   0  0  0  0  0  0  0  0  0  0  0  0
   -7.5728   -1.0560    2.0090 H   0  0  0  0  0  0  0  0  0  0  0  0
   -8.7569   -1.0981   -0.1706 H   0  0  0  0  0  0  0  0  0  0  0  0
    7.7028    1.2438   -0.7700 H   0  0  0  0  0  0  0  0  0  0  0  0
    6.8885   -2.5704    0.5482 H   0  0  0  0  0  0  0  0  0  0  0  0
  1  5  1  0  0  0  0
  1 10  1  0  0  0  0
  2  9  1  0  0  0  0
  2 10  1  0  0  0  0
  2 29  1  0  0  0  0
  3  6  1  0  0  0  0
  3 10  2  0  0  0  0
  4 22  2  0  0  0  0
  4 23  1  0  0  0  0
  5  6  2  0  0  0  0
  5  8  1  0  0  0  0
  6 11  1  0  0  0  0
  7  8  2  0  0  0  0
  7 12  1  0  0  0  0
  7 13  1  0  0  0  0
  8 24  1  0  0  0  0
  9 14  1  0  0  0  0
  9 25  1  0  0  0  0
  9 26  1  0  0  0  0
 11 12  2  0  0  0  0
 11 27  1  0  0  0  0
 12 28  1  0  0  0  0
 13 17  2  0  0  0  0
 13 18  1  0  0  0  0
 14 15  2  0  0  0  0
 14 16  1  0  0  0  0
 15 19  1  0  0  0  0
 15 30  1  0  0  0  0
 16 20  2  0  0  0  0
 16 31  1  0  0  0  0
 17 22  1  0  0  0  0
 17 32  1  0  0  0  0
 18 23  2  0  0  0  0
 18 33  1  0  0  0  0
 19 21  2  0  0  0  0
 19 34  1  0  0  0  0
 20 21  1  0  0  0  0
 20 35  1  0  0  0  0
 21 36  1  0  0  0  0
 22 37  1  0  0  0  0
 23 38  1  0  0  0  0
M  END
> <PUBCHEM_COMPOUND_CID>
44237411

> <PUBCHEM_CONFORMER_RMSD>
0.6

> <PUBCHEM_CONFORMER_DIVERSEORDER>
1
23
33
30
21
14
29
9
19
31
3
5
15
27
22
17
16
6
7
32
11
26
24
28
12
2
4
25
20
18
13
10
8

> <PUBCHEM_MMFF94_PARTIAL_CHARGES>
34
1 -0.08
10 0.46
11 -0.15
12 -0.15
14 -0.14
15 -0.15
16 -0.15
17 -0.15
18 -0.15
19 -0.15
2 -0.85
20 -0.15
21 -0.15
22 0.16
23 0.16
24 0.15
27 0.15
28 0.15
29 0.4
3 -0.57
30 0.15
31 0.15
32 0.15
33 0.15
34 0.15
35 0.15
36 0.15
37 0.15
38 0.15
4 -0.62
5 0.04
6 0.23
8 -0.15
9 0.51

> <PUBCHEM_EFFECTIVE_ROTOR_COUNT>
4

> <PUBCHEM_PHARMACOPHORE_FEATURES>
7
1 2 donor
1 4 acceptor
3 2 3 10 cation
5 1 3 5 6 10 rings
6 14 15 16 19 20 21 rings
6 4 13 17 18 22 23 rings
6 5 6 7 8 11 12 rings

> <PUBCHEM_HEAVY_ATOM_COUNT>
23

> <PUBCHEM_ATOM_DEF_STEREO_COUNT>
0

> <PUBCHEM_ATOM_UDEF_STEREO_COUNT>
0

> <PUBCHEM_BOND_DEF_STEREO_COUNT>
0

> <PUBCHEM_BOND_UDEF_STEREO_COUNT>
0

> <PUBCHEM_ISOTOPIC_ATOM_COUNT>
0

> <PUBCHEM_COMPONENT_COUNT>
1

> <PUBCHEM_CACTVS_TAUTO_COUNT>
4

> <PUBCHEM_CONFORMER_ID>
02A3026300000001

> <PUBCHEM_MMFF94_ENERGY>
65.4374

> <PUBCHEM_FEATURE_SELFOVERLAP>
35.593

> <PUBCHEM_SHAPE_FINGERPRINT>
10050765 1 17984977360781663886
10066227 49 18114177476422987074
10299344 5 18131634491139845367
11315181 36 17748830718348899333
11646440 116 17632580452405920248
11719270 70 18341609295969687078
12091667 2 18273496763375241641
12166972 35 18060700610728638425
12236239 1 17346599681819646313
12516196 113 17060618893315051736
13533116 47 17632579302067263078
13685833 64 18411139130112820136
13862211 1 18272087184250331921
14170010 4 18410572916317004904
14251764 18 18202284710109662144
14251764 46 17821729437832354170
14849402 71 17346030198773212624
14933364 13 17894630357468297021
15131766 46 16663197267872182604
15183329 4 18343861121505183743
15419008 47 17531239570034939349
15461852 350 14634871973030608403
15716309 27 18342739615977430803
15849732 13 17603587438867425910
16120349 18 18337669823844686324
18006028 8 18272932717414155048
19489759 90 16588022416867520725
21150785 3 15936411143541736371
21267235 1 18341055125741145878
21315759 40 18130790083727179749
21521721 280 18201440315523792048
21792934 111 18341320133750278496
21792961 116 18187642467024207670
22224240 67 17275381006537611182
23035841 295 17561362890052930159
232437 2 18202847635459266398
23522609 53 18127158383393525953
23559900 14 18262517112926821665
23569943 247 16842784633474277950
3178227 256 18411708694363480283
335352 9 18341895216769591286
4073 2 17968944226528289346
4325135 7 17989486321377396693
465052 167 18410295804831485382
59755656 215 17821726113591412683
59755656 520 18260260880733708679

> <PUBCHEM_SHAPE_MULTIPOLES>
462.24
23.61
1.44
0.91
13.33
0.1
0.03
-5.52
1.15
-1.68
-0.13
1.45
-0.04
-0.02

> <PUBCHEM_SHAPE_SELFOVERLAP>
1013.434

> <PUBCHEM_SHAPE_VOLUME>
251.3

> <PUBCHEM_COORDINATE_TYPE>
2
5
10

$$$$
