49830289
  -OEChem-10052120443D

 36 38  0     0  0  0  0  0  0999 V2000
   -4.2691    2.4778    0.4960 O   0  0  0  0  0  0  0  0  0  0  0  0
   -0.1860    1.5628   -0.2634 N   0  0  0  0  0  0  0  0  0  0  0  0
    3.1183   -1.6952    0.2612 N   0  0  0  0  0  0  0  0  0  0  0  0
    2.1076    2.1965   -0.1347 N   0  0  0  0  0  0  0  0  0  0  0  0
    3.9076    0.5800    0.1377 N   0  0  0  0  0  0  0  0  0  0  0  0
    1.5672   -0.1102    0.0107 C   0  0  0  0  0  0  0  0  0  0  0  0
    0.9245   -1.3735    0.0631 C   0  0  0  0  0  0  0  0  0  0  0  0
    1.1717    1.2193   -0.1285 C   0  0  0  0  0  0  0  0  0  0  0  0
    2.9311   -0.3442    0.1364 C   0  0  0  0  0  0  0  0  0  0  0  0
   -0.6383    2.9138   -0.4087 C   0  0  0  0  0  0  0  0  0  0  0  0
   -0.4669   -1.7151   -0.0170 C   0  0  0  0  0  0  0  0  0  0  0  0
    1.9042   -2.3311    0.2178 C   0  0  0  0  0  0  0  0  0  0  0  0
   -2.1573    2.9707   -0.5212 C   0  0  0  0  0  0  0  0  0  0  0  0
   -2.8648    2.3970    0.7008 C   0  0  0  0  0  0  0  0  0  0  0  0
   -1.2358   -1.7826    1.1448 C   0  0  0  0  0  0  0  0  0  0  0  0
   -1.0506   -1.9800   -1.2558 C   0  0  0  0  0  0  0  0  0  0  0  0
    3.3999    1.8213   -0.0031 C   0  0  0  0  0  0  0  0  0  0  0  0
   -2.5884   -2.1150    1.0679 C   0  0  0  0  0  0  0  0  0  0  0  0
   -2.4030   -2.3124   -1.3329 C   0  0  0  0  0  0  0  0  0  0  0  0
   -3.1719   -2.3799   -0.1710 C   0  0  0  0  0  0  0  0  0  0  0  0
   -0.3171    3.5156    0.4499 H   0  0  0  0  0  0  0  0  0  0  0  0
   -0.2016    3.3614   -1.3093 H   0  0  0  0  0  0  0  0  0  0  0  0
    1.8527   -3.4085    0.3017 H   0  0  0  0  0  0  0  0  0  0  0  0
   -0.8566    0.8077   -0.3228 H   0  0  0  0  0  0  0  0  0  0  0  0
   -2.4767    4.0093   -0.6714 H   0  0  0  0  0  0  0  0  0  0  0  0
   -2.4886    2.4254   -1.4146 H   0  0  0  0  0  0  0  0  0  0  0  0
    4.0132   -2.1522    0.3685 H   0  0  0  0  0  0  0  0  0  0  0  0
   -2.6118    1.3463    0.8662 H   0  0  0  0  0  0  0  0  0  0  0  0
   -2.6105    2.9683    1.5993 H   0  0  0  0  0  0  0  0  0  0  0  0
   -0.7971   -1.5774    2.1185 H   0  0  0  0  0  0  0  0  0  0  0  0
   -0.4658   -1.9305   -2.1714 H   0  0  0  0  0  0  0  0  0  0  0  0
    4.1249    2.6280   -0.0120 H   0  0  0  0  0  0  0  0  0  0  0  0
   -3.1874   -2.1665    1.9724 H   0  0  0  0  0  0  0  0  0  0  0  0
   -2.8577   -2.5180   -2.2975 H   0  0  0  0  0  0  0  0  0  0  0  0
   -4.2252   -2.6381   -0.2311 H   0  0  0  0  0  0  0  0  0  0  0  0
   -4.6948    2.1125    1.2903 H   0  0  0  0  0  0  0  0  0  0  0  0
  1 14  1  0  0  0  0
  1 36  1  0  0  0  0
  2  8  1  0  0  0  0
  2 10  1  0  0  0  0
  2 24  1  0  0  0  0
  3  9  1  0  0  0  0
  3 12  1  0  0  0  0
  3 27  1  0  0  0  0
  4  8  2  0  0  0  0
  4 17  1  0  0  0  0
  5  9  1  0  0  0  0
  5 17  2  0  0  0  0
  6  7  1  0  0  0  0
  6  8  1  0  0  0  0
  6  9  2  0  0  0  0
  7 11  1  0  0  0  0
  7 12  2  0  0  0  0
 10 13  1  0  0  0  0
 10 21  1  0  0  0  0
 10 22  1  0  0  0  0
 11 15  2  0  0  0  0
 11 16  1  0  0  0  0
 12 23  1  0  0  0  0
 13 14  1  0  0  0  0
 13 25  1  0  0  0  0
 13 26  1  0  0  0  0
 14 28  1  0  0  0  0
 14 29  1  0  0  0  0
 15 18  1  0  0  0  0
 15 30  1  0  0  0  0
 16 19  2  0  0  0  0
 16 31  1  0  0  0  0
 17 32  1  0  0  0  0
 18 20  2  0  0  0  0
 18 33  1  0  0  0  0
 19 20  1  0  0  0  0
 19 34  1  0  0  0  0
 20 35  1  0  0  0  0
M  END
> <PUBCHEM_COMPOUND_CID>
49830289

> <PUBCHEM_CONFORMER_RMSD>
0.8

> <PUBCHEM_CONFORMER_DIVERSEORDER>
1
7
8
3
6
5
9
4
10
2

> <PUBCHEM_MMFF94_PARTIAL_CHARGES>
28
1 -0.68
10 0.37
11 0.05
12 -0.3
14 0.28
15 -0.15
16 -0.15
17 0.47
18 -0.15
19 -0.15
2 -0.87
20 -0.15
23 0.15
24 0.4
27 0.27
3 0.03
30 0.15
31 0.15
32 0.15
33 0.15
34 0.15
35 0.15
36 0.4
4 -0.62
5 -0.57
7 -0.05
8 0.41
9 0.11

> <PUBCHEM_EFFECTIVE_ROTOR_COUNT>
5

> <PUBCHEM_PHARMACOPHORE_FEATURES>
10
1 1 acceptor
1 1 donor
1 2 donor
1 3 cation
1 3 donor
3 2 4 8 cation
3 4 5 17 cation
5 3 6 7 9 12 rings
6 11 15 16 18 19 20 rings
6 4 5 6 8 9 17 rings

> <PUBCHEM_HEAVY_ATOM_COUNT>
20

> <PUBCHEM_ATOM_DEF_STEREO_COUNT>
0

> <PUBCHEM_ATOM_UDEF_STEREO_COUNT>
0

> <PUBCHEM_BOND_DEF_STEREO_COUNT>
0

> <PUBCHEM_BOND_UDEF_STEREO_COUNT>
0

> <PUBCHEM_ISOTOPIC_ATOM_COUNT>
0

> <PUBCHEM_COMPONENT_COUNT>
1

> <PUBCHEM_CACTVS_TAUTO_COUNT>
9

> <PUBCHEM_CONFORMER_ID>
02F8599100000001

> <PUBCHEM_MMFF94_ENERGY>
45.0688

> <PUBCHEM_FEATURE_SELFOVERLAP>
50.977

> <PUBCHEM_SHAPE_FINGERPRINT>
104564 63 18339084907508278956
10688039 33 17896322588026764495
10871710 139 18121796168178973093
10967382 1 18049441448556371000
1100329 8 18192988210906765770
11578080 2 17559934637053880922
12035758 1 17766285275665282266
12293681 4 18043816600546002467
12422481 6 18196119710554420611
13140716 1 18337944602845348904
13965767 371 17697361496093297035
14790565 3 17831031482408742740
17138139 8 17768202996317666845
19591789 44 17473543547343311630
19930381 70 16896520390995699923
20028762 73 17912068470541475983
20261772 1 18339092514137999065
20645477 70 17545591263262830029
21041028 32 18192155012768009155
21197605 99 18339373976952455457
21236236 1 18410855503927557056
2334 1 18337107990012380572
238 59 17540788630858505021
25147074 1 18259982670327028192
2748010 2 18340200805027171894
3060560 45 17688864237904630876
6438718 38 18130782352559213439
7226269 152 16895128400437893684
77492 1 17701828914626488998
7832392 63 18339080389255528514
81228 2 18261943141549267728

> <PUBCHEM_SHAPE_MULTIPOLES>
385.8
6.07
4.48
0.98
0.95
2.89
-0.07
0.83
0.6
-3.58
-0.16
-0.74
-0.42
-0.62

> <PUBCHEM_SHAPE_SELFOVERLAP>
839.571

> <PUBCHEM_SHAPE_VOLUME>
208.4

> <PUBCHEM_COORDINATE_TYPE>
2
5
10

$$$$
