44364058
  -OEChem-10052115163D

 59 67  0     1  0  0  0  0  0999 V2000
    3.0233    4.0781    0.9263 O   0  0  0  0  0  0  0  0  0  0  0  0
    5.2268    0.0570    1.3230 O   0  0  0  0  0  0  0  0  0  0  0  0
   -1.8428   -1.3673   -0.5351 N   0  0  0  0  0  0  0  0  0  0  0  0
   -0.9619    0.7697   -0.9144 N   0  0  0  0  0  0  0  0  0  0  0  0
    0.4533   -1.8117   -0.6610 N   0  0  0  0  0  0  0  0  0  0  0  0
    4.4319    2.2489    1.2585 N   0  0  0  0  0  0  0  0  0  0  0  0
   -1.9409   -0.1880   -1.3945 C   0  0  1  0  0  0  0  0  0  0  0  0
   -0.8383   -2.1984   -1.1977 C   0  0  2  0  0  0  0  0  0  0  0  0
   -1.6668   -0.6253   -2.8294 C   0  0  0  0  0  0  0  0  0  0  0  0
   -0.9379   -1.9527   -2.6995 C   0  0  0  0  0  0  0  0  0  0  0  0
    0.3205    0.6413   -0.4543 C   0  0  0  0  0  0  0  0  0  0  0  0
    1.0020   -0.6020   -0.3321 C   0  0  0  0  0  0  0  0  0  0  0  0
    1.0775    1.8092   -0.0501 C   0  0  0  0  0  0  0  0  0  0  0  0
    2.3558   -0.5229    0.1797 C   0  0  0  0  0  0  0  0  0  0  0  0
   -1.1406    2.1554   -0.8705 C   0  0  0  0  0  0  0  0  0  0  0  0
    1.5123   -2.6843   -0.3945 C   0  0  0  0  0  0  0  0  0  0  0  0
   -3.1284   -2.0632   -0.4423 C   0  0  0  0  0  0  0  0  0  0  0  0
    0.0310    2.7918   -0.3552 C   0  0  0  0  0  0  0  0  0  0  0  0
    2.6364   -1.9617    0.1132 C   0  0  0  0  0  0  0  0  0  0  0  0
    2.3768    1.8328    0.4448 C   0  0  0  0  0  0  0  0  0  0  0  0
    3.0380    0.6262    0.5639 C   0  0  0  0  0  0  0  0  0  0  0  0
   -4.0121   -1.4689    0.6220 C   0  0  0  0  0  0  0  0  0  0  0  0
   -2.2644    2.9157   -1.2572 C   0  0  0  0  0  0  0  0  0  0  0  0
    1.5723   -4.0830   -0.5692 C   0  0  0  0  0  0  0  0  0  0  0  0
    0.0039    4.2050   -0.2367 C   0  0  0  0  0  0  0  0  0  0  0  0
    3.7940   -2.7109    0.4457 C   0  0  0  0  0  0  0  0  0  0  0  0
    3.2715    2.8898    0.8921 C   0  0  0  0  0  0  0  0  0  0  0  0
    4.3698    0.8855    1.0899 C   0  0  0  0  0  0  0  0  0  0  0  0
   -2.2394    4.3037   -1.1227 C   0  0  0  0  0  0  0  0  0  0  0  0
    2.7358   -4.7729   -0.2291 C   0  0  0  0  0  0  0  0  0  0  0  0
   -1.1207    4.9424   -0.6160 C   0  0  0  0  0  0  0  0  0  0  0  0
    3.8334   -4.0971    0.2754 C   0  0  0  0  0  0  0  0  0  0  0  0
   -3.9516   -1.9529    1.9287 C   0  0  0  0  0  0  0  0  0  0  0  0
   -4.8912   -0.4346    0.3013 C   0  0  0  0  0  0  0  0  0  0  0  0
   -4.7702   -1.4025    2.9150 C   0  0  0  0  0  0  0  0  0  0  0  0
   -5.7098    0.1159    1.2874 C   0  0  0  0  0  0  0  0  0  0  0  0
   -5.6493   -0.3681    2.5943 C   0  0  0  0  0  0  0  0  0  0  0  0
   -2.9092    0.3065   -1.3326 H   0  0  0  0  0  0  0  0  0  0  0  0
   -0.9709   -3.2592   -0.9650 H   0  0  0  0  0  0  0  0  0  0  0  0
   -2.6086   -0.7838   -3.3681 H   0  0  0  0  0  0  0  0  0  0  0  0
   -1.0751    0.1010   -3.3972 H   0  0  0  0  0  0  0  0  0  0  0  0
   -1.5369   -2.7386   -3.1748 H   0  0  0  0  0  0  0  0  0  0  0  0
    0.0363   -1.9251   -3.1995 H   0  0  0  0  0  0  0  0  0  0  0  0
   -3.6603   -2.1021   -1.4029 H   0  0  0  0  0  0  0  0  0  0  0  0
   -2.9721   -3.1154   -0.1660 H   0  0  0  0  0  0  0  0  0  0  0  0
   -3.1542    2.4418   -1.6608 H   0  0  0  0  0  0  0  0  0  0  0  0
    0.7275   -4.6378   -0.9664 H   0  0  0  0  0  0  0  0  0  0  0  0
    0.8607    4.7465    0.1485 H   0  0  0  0  0  0  0  0  0  0  0  0
    4.6789   -2.2213    0.8370 H   0  0  0  0  0  0  0  0  0  0  0  0
    5.2487    2.7318    1.6158 H   0  0  0  0  0  0  0  0  0  0  0  0
   -3.1070    4.8869   -1.4191 H   0  0  0  0  0  0  0  0  0  0  0  0
    2.7788   -5.8504   -0.3625 H   0  0  0  0  0  0  0  0  0  0  0  0
   -1.1129    6.0242   -0.5156 H   0  0  0  0  0  0  0  0  0  0  0  0
    4.7343   -4.6453    0.5371 H   0  0  0  0  0  0  0  0  0  0  0  0
   -3.2693   -2.7565    2.1929 H   0  0  0  0  0  0  0  0  0  0  0  0
   -4.9745   -0.0607   -0.7150 H   0  0  0  0  0  0  0  0  0  0  0  0
   -4.7229   -1.7789    3.9327 H   0  0  0  0  0  0  0  0  0  0  0  0
   -6.3986    0.9172    1.0366 H   0  0  0  0  0  0  0  0  0  0  0  0
   -6.2875    0.0598    3.3618 H   0  0  0  0  0  0  0  0  0  0  0  0
  1 27  2  0  0  0  0
  2 28  2  0  0  0  0
  3  7  1  0  0  0  0
  3  8  1  0  0  0  0
  3 17  1  0  0  0  0
  4  7  1  0  0  0  0
  4 11  1  0  0  0  0
  4 15  1  0  0  0  0
  5  8  1  0  0  0  0
  5 12  1  0  0  0  0
  5 16  1  0  0  0  0
  6 27  1  0  0  0  0
  6 28  1  0  0  0  0
  6 50  1  0  0  0  0
  7  9  1  0  0  0  0
  7 38  1  0  0  0  0
  8 10  1  0  0  0  0
  8 39  1  0  0  0  0
  9 10  1  0  0  0  0
  9 40  1  0  0  0  0
  9 41  1  0  0  0  0
 10 42  1  0  0  0  0
 10 43  1  0  0  0  0
 11 12  2  0  0  0  0
 11 13  1  0  0  0  0
 12 14  1  0  0  0  0
 13 18  1  0  0  0  0
 13 20  2  0  0  0  0
 14 19  1  0  0  0  0
 14 21  2  0  0  0  0
 15 18  1  0  0  0  0
 15 23  2  0  0  0  0
 16 19  1  0  0  0  0
 16 24  2  0  0  0  0
 17 22  1  0  0  0  0
 17 44  1  0  0  0  0
 17 45  1  0  0  0  0
 18 25  2  0  0  0  0
 19 26  2  0  0  0  0
 20 21  1  0  0  0  0
 20 27  1  0  0  0  0
 21 28  1  0  0  0  0
 22 33  2  0  0  0  0
 22 34  1  0  0  0  0
 23 29  1  0  0  0  0
 23 46  1  0  0  0  0
 24 30  1  0  0  0  0
 24 47  1  0  0  0  0
 25 31  1  0  0  0  0
 25 48  1  0  0  0  0
 26 32  1  0  0  0  0
 26 49  1  0  0  0  0
 29 31  2  0  0  0  0
 29 51  1  0  0  0  0
 30 32  2  0  0  0  0
 30 52  1  0  0  0  0
 31 53  1  0  0  0  0
 32 54  1  0  0  0  0
 33 35  1  0  0  0  0
 33 55  1  0  0  0  0
 34 36  2  0  0  0  0
 34 56  1  0  0  0  0
 35 37  2  0  0  0  0
 35 57  1  0  0  0  0
 36 37  1  0  0  0  0
 36 58  1  0  0  0  0
 37 59  1  0  0  0  0
M  END
> <PUBCHEM_COMPOUND_CID>
44364058

> <PUBCHEM_CONFORMER_RMSD>
0.8

> <PUBCHEM_CONFORMER_DIVERSEORDER>
1
2
3
4

> <PUBCHEM_MMFF94_PARTIAL_CHARGES>
47
1 -0.57
11 -0.05
12 -0.05
13 -0.01
14 -0.01
15 -0.15
16 -0.15
17 0.41
2 -0.57
20 0.09
21 0.09
22 -0.14
23 -0.15
24 -0.15
25 -0.15
26 -0.15
27 0.54
28 0.54
29 -0.15
3 -0.81
30 -0.15
31 -0.15
32 -0.15
33 -0.15
34 -0.15
35 -0.15
36 -0.15
37 -0.15
4 -0.04
46 0.15
47 0.15
48 0.15
49 0.15
5 -0.04
50 0.37
51 0.15
52 0.15
53 0.15
54 0.15
55 0.15
56 0.15
57 0.15
58 0.15
59 0.15
6 -0.49
7 0.53
8 0.53

> <PUBCHEM_EFFECTIVE_ROTOR_COUNT>
2.8

> <PUBCHEM_PHARMACOPHORE_FEATURES>
15
1 1 acceptor
1 2 acceptor
1 3 cation
1 4 cation
1 5 cation
1 6 donor
5 3 7 8 9 10 rings
5 4 11 13 15 18 rings
5 5 12 14 16 19 rings
5 6 20 21 27 28 rings
6 11 12 13 14 20 21 rings
6 15 18 23 25 29 31 rings
6 16 19 24 26 30 32 rings
6 22 33 34 35 36 37 rings
7 3 4 5 7 8 11 12 rings

> <PUBCHEM_HEAVY_ATOM_COUNT>
37

> <PUBCHEM_ATOM_DEF_STEREO_COUNT>
2

> <PUBCHEM_ATOM_UDEF_STEREO_COUNT>
0

> <PUBCHEM_BOND_DEF_STEREO_COUNT>
0

> <PUBCHEM_BOND_UDEF_STEREO_COUNT>
0

> <PUBCHEM_ISOTOPIC_ATOM_COUNT>
0

> <PUBCHEM_COMPONENT_COUNT>
1

> <PUBCHEM_CACTVS_TAUTO_COUNT>
2

> <PUBCHEM_CONFORMER_ID>
02A4F11A00000001

> <PUBCHEM_MMFF94_ENERGY>
146.2819

> <PUBCHEM_FEATURE_SELFOVERLAP>
78.033

> <PUBCHEM_SHAPE_FINGERPRINT>
10190108 129 18265922257150676392
1100329 8 17112390772861767796
11387372 6 16817110916580134130
11421498 54 17609260940726422775
11578080 2 16624560235107320947
12422481 6 18342457058030905361
12633257 1 17897168142190820251
12788726 201 17900006870555040375
13140716 1 18122049069355175414
13911987 19 17974823358557817388
13965767 371 17988940967509549231
14020679 6 17616815431797214297
14114211 80 17905901614721441708
14725015 67 16680892356689928120
14790565 3 18049446142861355844
14955137 171 18118691151879544628
15420108 30 17988645241742147927
19611394 137 18050007684429585562
20739085 24 18264494068755619976
22440779 20 17611510403719170139
25223398 141 17174075115048756949
3380486 145 18336536201401704839
44802255 64 13972571355198214384
469060 322 18196352922493144547
57527358 35 15871447452302419140

> <PUBCHEM_SHAPE_MULTIPOLES>
729.78
9.6
6.66
2.07
5.32
3.81
-0.02
-4.44
-8.11
-3.88
0.83
2.72
-0.79
3.04

> <PUBCHEM_SHAPE_SELFOVERLAP>
1709.602

> <PUBCHEM_SHAPE_VOLUME>
367.4

> <PUBCHEM_COORDINATE_TYPE>
2
5
10

$$$$
