15981404
  -OEChem-10052115193D

 53 56  0     0  0  0  0  0  0999 V2000
    0.5570    5.8804    0.3165 F   0  0  0  0  0  0  0  0  0  0  0  0
   -5.1369    1.2072    1.4017 O   0  0  0  0  0  0  0  0  0  0  0  0
   -3.2757   -0.8210   -0.7829 N   0  0  0  0  0  0  0  0  0  0  0  0
    2.1191   -1.6098   -0.1930 N   0  0  0  0  0  0  0  0  0  0  0  0
   -0.9396   -0.6457   -0.6517 N   0  0  0  0  0  0  0  0  0  0  0  0
    3.1477    0.0369    0.9077 N   0  0  0  0  0  0  0  0  0  0  0  0
   -2.0818   -0.4068   -2.7600 N   0  0  0  0  0  0  0  0  0  0  0  0
    3.9495   -3.5042    0.7117 N   0  0  0  0  0  0  0  0  0  0  0  0
   -4.8885   -1.2026    1.0652 C   0  0  0  0  0  0  0  0  0  0  0  0
   -3.4079   -1.0572    0.6366 C   0  0  0  0  0  0  0  0  0  0  0  0
   -5.7043    0.0732    0.7586 C   0  0  0  0  0  0  0  0  0  0  0  0
   -5.5446   -2.3980    0.3496 C   0  0  0  0  0  0  0  0  0  0  0  0
   -4.9149   -1.4712    2.5843 C   0  0  0  0  0  0  0  0  0  0  0  0
    1.3961   -0.4794   -0.4670 C   0  0  0  0  0  0  0  0  0  0  0  0
   -2.0616   -0.6180   -1.4177 C   0  0  0  0  0  0  0  0  0  0  0  0
    2.0546    0.5212    0.2260 C   0  0  0  0  0  0  0  0  0  0  0  0
    0.2252   -0.4453   -1.3022 C   0  0  0  0  0  0  0  0  0  0  0  0
    3.1539   -1.2455    0.6322 C   0  0  0  0  0  0  0  0  0  0  0  0
    1.6690    1.9006    0.2493 C   0  0  0  0  0  0  0  0  0  0  0  0
    4.0822   -2.2562    1.0797 C   0  0  0  0  0  0  0  0  0  0  0  0
    1.9811   -2.9290   -0.5805 C   0  0  0  0  0  0  0  0  0  0  0  0
    0.3160   -0.2224   -2.6610 C   0  0  0  0  0  0  0  0  0  0  0  0
   -0.8820   -0.2137   -3.3459 C   0  0  0  0  0  0  0  0  0  0  0  0
    2.8846   -3.8169   -0.1237 C   0  0  0  0  0  0  0  0  0  0  0  0
    0.7851    2.3648    1.2257 C   0  0  0  0  0  0  0  0  0  0  0  0
    2.1759    2.7862   -0.7043 C   0  0  0  0  0  0  0  0  0  0  0  0
    5.2130   -1.8557    1.9834 C   0  0  0  0  0  0  0  0  0  0  0  0
    0.4097    3.7081    1.2483 C   0  0  0  0  0  0  0  0  0  0  0  0
    1.8006    4.1295   -0.6816 C   0  0  0  0  0  0  0  0  0  0  0  0
    0.9174    4.5904    0.2946 C   0  0  0  0  0  0  0  0  0  0  0  0
   -2.8611   -1.9716    0.9016 H   0  0  0  0  0  0  0  0  0  0  0  0
   -2.9412   -0.2326    1.1903 H   0  0  0  0  0  0  0  0  0  0  0  0
   -6.7426   -0.0274    1.0955 H   0  0  0  0  0  0  0  0  0  0  0  0
   -5.7350    0.2823   -0.3154 H   0  0  0  0  0  0  0  0  0  0  0  0
   -6.5598   -2.5701    0.7260 H   0  0  0  0  0  0  0  0  0  0  0  0
   -4.9720   -3.3182    0.5113 H   0  0  0  0  0  0  0  0  0  0  0  0
   -5.6237   -2.2385   -0.7306 H   0  0  0  0  0  0  0  0  0  0  0  0
   -4.4256   -2.4228    2.8227 H   0  0  0  0  0  0  0  0  0  0  0  0
   -5.9433   -1.5260    2.9589 H   0  0  0  0  0  0  0  0  0  0  0  0
   -4.3935   -0.6893    3.1468 H   0  0  0  0  0  0  0  0  0  0  0  0
   -4.0982   -0.7953   -1.3733 H   0  0  0  0  0  0  0  0  0  0  0  0
   -5.3382    1.1426    2.3503 H   0  0  0  0  0  0  0  0  0  0  0  0
    1.1604   -3.2033   -1.2308 H   0  0  0  0  0  0  0  0  0  0  0  0
    1.2583   -0.0625   -3.1702 H   0  0  0  0  0  0  0  0  0  0  0  0
   -0.9110   -0.0460   -4.4172 H   0  0  0  0  0  0  0  0  0  0  0  0
    2.8080   -4.8613   -0.4067 H   0  0  0  0  0  0  0  0  0  0  0  0
    0.3794    1.6902    1.9762 H   0  0  0  0  0  0  0  0  0  0  0  0
    2.8654    2.4433   -1.4725 H   0  0  0  0  0  0  0  0  0  0  0  0
    4.8117   -1.4258    2.9056 H   0  0  0  0  0  0  0  0  0  0  0  0
    5.8368   -1.1095    1.4831 H   0  0  0  0  0  0  0  0  0  0  0  0
    5.8291   -2.7236    2.2344 H   0  0  0  0  0  0  0  0  0  0  0  0
   -0.2781    4.0673    2.0080 H   0  0  0  0  0  0  0  0  0  0  0  0
    2.1956    4.8166   -1.4240 H   0  0  0  0  0  0  0  0  0  0  0  0
  1 30  1  0  0  0  0
  2 11  1  0  0  0  0
  2 42  1  0  0  0  0
  3 10  1  0  0  0  0
  3 15  1  0  0  0  0
  3 41  1  0  0  0  0
  4 14  1  0  0  0  0
  4 18  1  0  0  0  0
  4 21  1  0  0  0  0
  5 15  1  0  0  0  0
  5 17  2  0  0  0  0
  6 16  1  0  0  0  0
  6 18  2  0  0  0  0
  7 15  2  0  0  0  0
  7 23  1  0  0  0  0
  8 20  2  0  0  0  0
  8 24  1  0  0  0  0
  9 10  1  0  0  0  0
  9 11  1  0  0  0  0
  9 12  1  0  0  0  0
  9 13  1  0  0  0  0
 10 31  1  0  0  0  0
 10 32  1  0  0  0  0
 11 33  1  0  0  0  0
 11 34  1  0  0  0  0
 12 35  1  0  0  0  0
 12 36  1  0  0  0  0
 12 37  1  0  0  0  0
 13 38  1  0  0  0  0
 13 39  1  0  0  0  0
 13 40  1  0  0  0  0
 14 16  2  0  0  0  0
 14 17  1  0  0  0  0
 16 19  1  0  0  0  0
 17 22  1  0  0  0  0
 18 20  1  0  0  0  0
 19 25  2  0  0  0  0
 19 26  1  0  0  0  0
 20 27  1  0  0  0  0
 21 24  2  0  0  0  0
 21 43  1  0  0  0  0
 22 23  2  0  0  0  0
 22 44  1  0  0  0  0
 23 45  1  0  0  0  0
 24 46  1  0  0  0  0
 25 28  1  0  0  0  0
 25 47  1  0  0  0  0
 26 29  2  0  0  0  0
 26 48  1  0  0  0  0
 27 49  1  0  0  0  0
 27 50  1  0  0  0  0
 27 51  1  0  0  0  0
 28 30  2  0  0  0  0
 28 52  1  0  0  0  0
 29 30  1  0  0  0  0
 29 53  1  0  0  0  0
M  END
> <PUBCHEM_COMPOUND_CID>
15981404

> <PUBCHEM_CONFORMER_RMSD>
0.8

> <PUBCHEM_CONFORMER_DIVERSEORDER>
1
94
65
109
73
74
69
60
39
29
35
43
115
30
123
18
71
21
106
19
77
27
38
116
23
34
118
25
14
33
120
121
40
24
72
66
6
96
49
98
93
76
97
103
31
102
61
13
42
114
91
11
47
104
37
51
50
113
10
32
48
108
117
99
82
84
41
112
53
85
101
54
68
52
81
64
89
67
79
92
7
45
95
100
105
58
88
59
15
55
122
75
70
80
111
8
22
17
90
86
16
63
107
9
5
87
20
119
2
44
36
110
26
4
62
78
46
56
28
57
3
83
12

> <PUBCHEM_MMFF94_PARTIAL_CHARGES>
37
1 -0.19
10 0.37
11 0.28
14 -0.2
15 0.72
16 0.17
17 0.36
18 0.1
19 0.05
2 -0.68
20 0.47
21 -0.18
22 -0.15
23 0.16
24 0.02
25 -0.15
26 -0.15
27 0.06
28 -0.15
29 -0.15
3 -0.87
30 0.19
4 0.33
41 0.4
42 0.4
43 0.15
44 0.15
45 0.15
46 0.15
47 0.15
48 0.15
5 -0.62
52 0.15
53 0.15
6 -0.57
7 -0.62
8 -0.62

> <PUBCHEM_EFFECTIVE_ROTOR_COUNT>
6

> <PUBCHEM_PHARMACOPHORE_FEATURES>
12
1 2 acceptor
1 2 donor
1 3 donor
1 5 acceptor
1 8 acceptor
3 4 6 18 cation
3 9 12 13 hydrophobe
4 3 5 7 15 cation
5 4 6 14 16 18 rings
6 19 25 26 28 29 30 rings
6 4 8 18 20 21 24 rings
6 5 7 15 17 22 23 rings

> <PUBCHEM_HEAVY_ATOM_COUNT>
30

> <PUBCHEM_ATOM_DEF_STEREO_COUNT>
0

> <PUBCHEM_ATOM_UDEF_STEREO_COUNT>
0

> <PUBCHEM_BOND_DEF_STEREO_COUNT>
0

> <PUBCHEM_BOND_UDEF_STEREO_COUNT>
0

> <PUBCHEM_ISOTOPIC_ATOM_COUNT>
0

> <PUBCHEM_COMPONENT_COUNT>
1

> <PUBCHEM_CACTVS_TAUTO_COUNT>
3

> <PUBCHEM_CONFORMER_ID>
00F3DB5C00000001

> <PUBCHEM_MMFF94_ENERGY>
90.9727

> <PUBCHEM_FEATURE_SELFOVERLAP>
61.014

> <PUBCHEM_SHAPE_FINGERPRINT>
10074138 170 17471834927922300864
10165383 225 17754741851156818556
10190108 129 18341626871671668818
10794284 68 18126873541847659660
12160290 23 17554887668471830964
12293681 4 18048305657297849245
12422481 6 17488182578325628075
12633257 1 18412543236553323447
13135754 10 17908991998130752278
13583140 156 18410572916575143423
13965767 371 16988278677375580038
14950920 106 18338802329405760851
14955137 171 18338515356828336234
15142526 21 17548984807090929569
15475509 84 18264214612608736773
15842332 3 17772456039852054911
17868525 174 18410856538745669825
17909252 39 14924236975708256520
19319366 153 17838900687339420449
20739085 24 18342171189824643440
21304303 282 9264336529413912396
21344244 78 18272646853086064763
21756936 100 17336471207937582948
21860390 5 18272382978906522383
23559900 14 17240478144001577751
23845131 108 17687740962312697723
3380486 145 18054474020803872094
350125 39 17182184442789115508
3552219 110 17969521333416520134
44802255 64 11957737209978794712
484985 159 17322105629022531674
513202 73 17840872876239921278
6086070 43 18413386540965788751
621550 5 17894909590266279750
6442390 28 17470733676637603484
6703917 75 17179982133388385852
7097593 13 18342453764044411167
7288768 16 17189534707468981741

> <PUBCHEM_SHAPE_MULTIPOLES>
574.36
10.15
5.94
2.39
15.53
8.14
1.64
-9.18
-7.54
-7.18
-1.71
1.42
-0.53
-0.74

> <PUBCHEM_SHAPE_SELFOVERLAP>
1253.379

> <PUBCHEM_SHAPE_VOLUME>
315.4

> <PUBCHEM_COORDINATE_TYPE>
2
5
10

$$$$
