6918469
  -OEChem-10062122023D

 35 36  0     0  0  0  0  0  0999 V2000
    3.4377   -2.4495   -0.1563 O   0  0  0  0  0  0  0  0  0  0  0  0
    3.1736    2.3057   -0.1648 O   0  0  0  0  0  0  0  0  0  0  0  0
   -3.7485   -0.5888   -2.2251 O   0  0  0  0  0  0  0  0  0  0  0  0
   -5.0464   -0.6985    0.2301 O   0  0  0  0  0  0  0  0  0  0  0  0
    0.0021    2.7060   -1.2415 O   0  0  0  0  0  0  0  0  0  0  0  0
    0.0528    2.8298    1.0175 O   0  0  0  0  0  0  0  0  0  0  0  0
   -0.9129   -0.3536    0.0689 C   0  0  0  0  0  0  0  0  0  0  0  0
    0.5302   -0.2334   -0.0095 C   0  0  0  0  0  0  0  0  0  0  0  0
   -1.5638   -0.4076    1.3010 C   0  0  0  0  0  0  0  0  0  0  0  0
    1.1529    1.0142   -0.0495 C   0  0  0  0  0  0  0  0  0  0  0  0
    1.2979   -1.3974   -0.0457 C   0  0  0  0  0  0  0  0  0  0  0  0
   -1.6495   -0.4151   -1.1135 C   0  0  0  0  0  0  0  0  0  0  0  0
   -2.9530   -0.5232    1.3507 C   0  0  0  0  0  0  0  0  0  0  0  0
    2.5432    1.0977   -0.1255 C   0  0  0  0  0  0  0  0  0  0  0  0
    2.6882   -1.3139   -0.1217 C   0  0  0  0  0  0  0  0  0  0  0  0
   -3.0388   -0.5305   -1.0637 C   0  0  0  0  0  0  0  0  0  0  0  0
   -0.8069   -0.3454    2.5888 C   0  0  0  0  0  0  0  0  0  0  0  0
   -3.6905   -0.5846    0.1684 C   0  0  0  0  0  0  0  0  0  0  0  0
    3.3108   -0.0663   -0.1615 C   0  0  0  0  0  0  0  0  0  0  0  0
    0.3676    2.2453   -0.0132 C   0  0  0  0  0  0  0  0  0  0  0  0
    4.8535   -2.2909   -0.2341 C   0  0  0  0  0  0  0  0  0  0  0  0
    0.8244   -2.3766   -0.0148 H   0  0  0  0  0  0  0  0  0  0  0  0
   -1.1450   -0.3726   -2.0768 H   0  0  0  0  0  0  0  0  0  0  0  0
   -3.4720   -0.5665    2.3052 H   0  0  0  0  0  0  0  0  0  0  0  0
   -0.2561    0.5960    2.6763 H   0  0  0  0  0  0  0  0  0  0  0  0
   -1.4763   -0.4036    3.4546 H   0  0  0  0  0  0  0  0  0  0  0  0
   -0.1094   -1.1854    2.6696 H   0  0  0  0  0  0  0  0  0  0  0  0
    4.3865    0.0636   -0.2203 H   0  0  0  0  0  0  0  0  0  0  0  0
    2.5290    3.0307   -0.1340 H   0  0  0  0  0  0  0  0  0  0  0  0
   -3.1328   -0.5374   -2.9761 H   0  0  0  0  0  0  0  0  0  0  0  0
   -5.3926   -0.7275   -0.6788 H   0  0  0  0  0  0  0  0  0  0  0  0
    5.2903   -3.2948   -0.2528 H   0  0  0  0  0  0  0  0  0  0  0  0
    5.2514   -1.7861    0.6528 H   0  0  0  0  0  0  0  0  0  0  0  0
    5.1527   -1.7953   -1.1639 H   0  0  0  0  0  0  0  0  0  0  0  0
   -0.5245    3.5314   -1.1792 H   0  0  0  0  0  0  0  0  0  0  0  0
  1 15  1  0  0  0  0
  1 21  1  0  0  0  0
  2 14  1  0  0  0  0
  2 29  1  0  0  0  0
  3 16  1  0  0  0  0
  3 30  1  0  0  0  0
  4 18  1  0  0  0  0
  4 31  1  0  0  0  0
  5 20  1  0  0  0  0
  5 35  1  0  0  0  0
  6 20  2  0  0  0  0
  7  8  1  0  0  0  0
  7  9  1  0  0  0  0
  7 12  2  0  0  0  0
  8 10  2  0  0  0  0
  8 11  1  0  0  0  0
  9 13  2  0  0  0  0
  9 17  1  0  0  0  0
 10 14  1  0  0  0  0
 10 20  1  0  0  0  0
 11 15  2  0  0  0  0
 11 22  1  0  0  0  0
 12 16  1  0  0  0  0
 12 23  1  0  0  0  0
 13 18  1  0  0  0  0
 13 24  1  0  0  0  0
 14 19  2  0  0  0  0
 15 19  1  0  0  0  0
 16 18  2  0  0  0  0
 17 25  1  0  0  0  0
 17 26  1  0  0  0  0
 17 27  1  0  0  0  0
 19 28  1  0  0  0  0
 21 32  1  0  0  0  0
 21 33  1  0  0  0  0
 21 34  1  0  0  0  0
M  END
> <PUBCHEM_COMPOUND_CID>
6918469

> <PUBCHEM_CONFORMER_RMSD>
0.6

> <PUBCHEM_CONFORMER_DIVERSEORDER>
2
4
1
3

> <PUBCHEM_MMFF94_PARTIAL_CHARGES>
27
1 -0.36
10 0.09
11 -0.15
12 -0.15
13 -0.15
14 0.08
15 0.08
16 0.08
17 0.14
18 0.08
19 -0.15
2 -0.53
20 0.63
21 0.28
22 0.15
23 0.15
24 0.15
28 0.15
29 0.45
3 -0.53
30 0.45
31 0.45
35 0.5
4 -0.53
5 -0.65
6 -0.57
9 -0.14

> <PUBCHEM_EFFECTIVE_ROTOR_COUNT>
3

> <PUBCHEM_PHARMACOPHORE_FEATURES>
9
1 1 acceptor
1 2 donor
1 3 donor
1 4 donor
1 5 acceptor
1 6 acceptor
3 5 6 20 anion
6 7 9 12 13 16 18 rings
6 8 10 11 14 15 19 rings

> <PUBCHEM_HEAVY_ATOM_COUNT>
21

> <PUBCHEM_ATOM_DEF_STEREO_COUNT>
0

> <PUBCHEM_ATOM_UDEF_STEREO_COUNT>
0

> <PUBCHEM_BOND_DEF_STEREO_COUNT>
0

> <PUBCHEM_BOND_UDEF_STEREO_COUNT>
0

> <PUBCHEM_ISOTOPIC_ATOM_COUNT>
0

> <PUBCHEM_COMPONENT_COUNT>
1

> <PUBCHEM_CACTVS_TAUTO_COUNT>
161

> <PUBCHEM_CONFORMER_ID>
0069914500000002

> <PUBCHEM_MMFF94_ENERGY>
79.8379

> <PUBCHEM_FEATURE_SELFOVERLAP>
45.736

> <PUBCHEM_SHAPE_FINGERPRINT>
10989021 7 18341899558712547362
11578080 2 17487306340493977745
11582403 64 16602596618917879669
12236239 1 17703514358534989019
12363563 72 18263087634849654050
12553582 1 18340776936056292374
13009979 54 17632302280296366026
13134695 92 18342174505149544677
13140716 1 18269278958734110432
13911987 19 17902249019835668404
16945 1 18199742716446049577
17357779 13 18335136445531314254
1813 80 18129398007454195558
18186145 218 17530961363158399191
19049666 15 17821721728476873185
200 152 18340205198267188042
20626108 58 17845351371556242399
20645477 70 18335138713153110154
21041028 32 18341338799203321377
22112679 90 17632308860143624104
23114952 82 17677344933869418812
23175994 123 18114189617988771871
232386 152 16486970743537744607
23402539 116 18338517409290284978
23419403 2 17325706731793768128
23526113 38 17895197752470094921
23559900 14 17095521782280544690
2748010 2 18195805164313660068
474 4 17842271759593029960
57527295 17 17896581913404066303
6992083 37 17917436397555233087
70251023 43 18338799996732194634
77492 1 17703798045446139931
81228 2 18115307757143580680

> <PUBCHEM_SHAPE_MULTIPOLES>
396.95
7.53
2.52
1.53
0.4
1.67
-0.42
-4.89
1.47
-2.88
0.19
1.72
-0.11
0.03

> <PUBCHEM_SHAPE_SELFOVERLAP>
868.031

> <PUBCHEM_SHAPE_VOLUME>
217.1

> <PUBCHEM_COORDINATE_TYPE>
2
5
10

$$$$
