49831005
  -OEChem-10052115183D

 40 42  0     0  0  0  0  0  0999 V2000
    4.6398   -2.9989    0.2035 Cl  0  0  0  0  0  0  0  0  0  0  0  0
   -1.7147   -0.8140   -0.7385 O   0  0  0  0  0  0  0  0  0  0  0  0
    2.8476    2.0296    0.4933 O   0  0  0  0  0  0  0  0  0  0  0  0
   -0.5499   -0.1273   -0.4258 N   0  0  0  0  0  0  0  0  0  0  0  0
   -1.6113    2.0470   -0.3525 N   0  0  0  0  0  0  0  0  0  0  0  0
   -1.2850    3.3371   -0.1271 N   0  0  0  0  0  0  0  0  0  0  0  0
   -0.5462    1.2099   -0.2555 C   0  0  0  0  0  0  0  0  0  0  0  0
    0.5428    1.9831    0.0497 C   0  0  0  0  0  0  0  0  0  0  0  0
    0.6877   -0.8239   -0.2775 C   0  0  0  0  0  0  0  0  0  0  0  0
    1.8799   -0.1089    0.0401 C   0  0  0  0  0  0  0  0  0  0  0  0
   -3.6013   -1.9486    0.2603 C   0  0  0  0  0  0  0  0  0  0  0  0
    1.8448    1.3846    0.2218 C   0  0  0  0  0  0  0  0  0  0  0  0
    0.0320    3.2897    0.1179 C   0  0  0  0  0  0  0  0  0  0  0  0
   -2.2997   -1.1797    0.5033 C   0  0  0  0  0  0  0  0  0  0  0  0
    0.7654   -2.2143   -0.4375 C   0  0  0  0  0  0  0  0  0  0  0  0
    3.0966   -0.7811    0.1875 C   0  0  0  0  0  0  0  0  0  0  0  0
   -3.3526   -3.2243   -0.5473 C   0  0  0  0  0  0  0  0  0  0  0  0
   -4.2775   -2.2843    1.5878 C   0  0  0  0  0  0  0  0  0  0  0  0
   -2.9884    1.7308   -0.6520 C   0  0  0  0  0  0  0  0  0  0  0  0
    0.7598    4.5354    0.4144 C   0  0  0  0  0  0  0  0  0  0  0  0
    1.9859   -2.8772   -0.2882 C   0  0  0  0  0  0  0  0  0  0  0  0
    3.1442   -2.1646    0.0224 C   0  0  0  0  0  0  0  0  0  0  0  0
   -4.2764   -1.3141   -0.3277 H   0  0  0  0  0  0  0  0  0  0  0  0
   -2.4986   -0.3049    1.1313 H   0  0  0  0  0  0  0  0  0  0  0  0
   -1.6145   -1.8246    1.0694 H   0  0  0  0  0  0  0  0  0  0  0  0
   -0.1125   -2.8029   -0.6893 H   0  0  0  0  0  0  0  0  0  0  0  0
    4.0047   -0.2345    0.4297 H   0  0  0  0  0  0  0  0  0  0  0  0
   -4.2896   -3.7669   -0.7123 H   0  0  0  0  0  0  0  0  0  0  0  0
   -2.9273   -2.9948   -1.5297 H   0  0  0  0  0  0  0  0  0  0  0  0
   -2.6609   -3.8951   -0.0264 H   0  0  0  0  0  0  0  0  0  0  0  0
   -4.4955   -1.3729    2.1545 H   0  0  0  0  0  0  0  0  0  0  0  0
   -5.2250   -2.8072    1.4203 H   0  0  0  0  0  0  0  0  0  0  0  0
   -3.6419   -2.9256    2.2079 H   0  0  0  0  0  0  0  0  0  0  0  0
   -3.0405    1.0137   -1.4720 H   0  0  0  0  0  0  0  0  0  0  0  0
   -3.4909    2.6463   -0.9815 H   0  0  0  0  0  0  0  0  0  0  0  0
   -3.4805    1.3737    0.2526 H   0  0  0  0  0  0  0  0  0  0  0  0
    1.5507    4.7025   -0.3240 H   0  0  0  0  0  0  0  0  0  0  0  0
    0.0990    5.4086    0.3997 H   0  0  0  0  0  0  0  0  0  0  0  0
    1.2218    4.4829    1.4055 H   0  0  0  0  0  0  0  0  0  0  0  0
    2.0182   -3.9561   -0.4199 H   0  0  0  0  0  0  0  0  0  0  0  0
  1 22  1  0  0  0  0
  2  4  1  0  0  0  0
  2 14  1  0  0  0  0
  3 12  2  0  0  0  0
  4  7  1  0  0  0  0
  4  9  1  0  0  0  0
  5  6  1  0  0  0  0
  5  7  1  0  0  0  0
  5 19  1  0  0  0  0
  6 13  2  0  0  0  0
  7  8  2  0  0  0  0
  8 12  1  0  0  0  0
  8 13  1  0  0  0  0
  9 10  2  0  0  0  0
  9 15  1  0  0  0  0
 10 12  1  0  0  0  0
 10 16  1  0  0  0  0
 11 14  1  0  0  0  0
 11 17  1  0  0  0  0
 11 18  1  0  0  0  0
 11 23  1  0  0  0  0
 13 20  1  0  0  0  0
 14 24  1  0  0  0  0
 14 25  1  0  0  0  0
 15 21  2  0  0  0  0
 15 26  1  0  0  0  0
 16 22  2  0  0  0  0
 16 27  1  0  0  0  0
 17 28  1  0  0  0  0
 17 29  1  0  0  0  0
 17 30  1  0  0  0  0
 18 31  1  0  0  0  0
 18 32  1  0  0  0  0
 18 33  1  0  0  0  0
 19 34  1  0  0  0  0
 19 35  1  0  0  0  0
 19 36  1  0  0  0  0
 20 37  1  0  0  0  0
 20 38  1  0  0  0  0
 20 39  1  0  0  0  0
 21 22  1  0  0  0  0
 21 40  1  0  0  0  0
M  END
> <PUBCHEM_COMPOUND_CID>
49831005

> <PUBCHEM_CONFORMER_RMSD>
0.6

> <PUBCHEM_CONFORMER_DIVERSEORDER>
1
2

> <PUBCHEM_MMFF94_PARTIAL_CHARGES>
22
1 -0.18
10 0.09
12 0.57
13 0.11
14 0.28
15 -0.15
16 -0.15
19 0.26
2 -0.26
20 0.18
21 -0.15
22 0.18
26 0.15
27 0.15
3 -0.57
4 -0.2
40 0.15
5 0.31
6 -0.71
7 -0.07
8 -0.09
9 0.1

> <PUBCHEM_EFFECTIVE_ROTOR_COUNT>
3

> <PUBCHEM_PHARMACOPHORE_FEATURES>
6
1 3 acceptor
1 6 acceptor
3 11 17 18 hydrophobe
5 5 6 7 8 13 rings
6 4 7 8 9 10 12 rings
6 9 10 15 16 21 22 rings

> <PUBCHEM_HEAVY_ATOM_COUNT>
22

> <PUBCHEM_ATOM_DEF_STEREO_COUNT>
0

> <PUBCHEM_ATOM_UDEF_STEREO_COUNT>
0

> <PUBCHEM_BOND_DEF_STEREO_COUNT>
0

> <PUBCHEM_BOND_UDEF_STEREO_COUNT>
0

> <PUBCHEM_ISOTOPIC_ATOM_COUNT>
0

> <PUBCHEM_COMPONENT_COUNT>
1

> <PUBCHEM_CACTVS_TAUTO_COUNT>
1

> <PUBCHEM_CONFORMER_ID>
02F85C5D00000001

> <PUBCHEM_MMFF94_ENERGY>
49.7862

> <PUBCHEM_FEATURE_SELFOVERLAP>
30.567

> <PUBCHEM_SHAPE_FINGERPRINT>
10319926 262 17907833143626267402
10411042 1 18411135835673236526
10906281 52 17911806777487603340
10967382 1 17906448084299850660
1100329 8 18265895748570398553
11578080 2 17129548402784328251
11680986 33 18339631274445439668
11828532 37 12698866573608085723
12553582 1 18411143575272778375
12788726 201 18189623752317964186
13140716 1 18339641144517487512
138480 1 14880315497345983638
14363568 33 18194136328346919674
14790565 3 17832718137514390021
14844126 61 18119801422358933746
15042514 8 18193280689194186147
15196674 1 17261023330446500726
15475509 84 18058467455731625057
16945 1 18123751959168319324
19591789 44 18050289472680127380
20028762 73 17119454035411927926
20510252 161 17550942590349015320
20645477 70 17902777902240106295
20739085 24 18268166394473589203
21041028 32 18410578374634843198
221490 88 18409168796818117418
22182313 1 18340193176806623004
2255824 54 17979926234608046447
23184049 29 18409729517366942622
2334 1 18339635737185485644
23419403 2 17464775281350469598
23557571 272 17769372717717768502
23559900 14 18196078955620362354
2748010 2 18341035385428174204
3084891 72 17834103157266227559
3091708 16 9065714709562842555
3380486 145 18336558156984494993
352729 6 18123187896528153287
474 4 17836651095175666571
5104073 3 17260740751668723826
54173680 148 18265895752807103198
58807428 26 17548687938687725208
6443956 14 18336829783674899127
8809292 202 18192710051075114695
9709674 26 17838613362643561430

> <PUBCHEM_SHAPE_MULTIPOLES>
427.94
6.57
5.71
0.84
1.06
3.92
0.15
-8.1
1.19
-1.24
0.51
-0.59
-0.33
0.96

> <PUBCHEM_SHAPE_SELFOVERLAP>
915.409

> <PUBCHEM_SHAPE_VOLUME>
241.5

> <PUBCHEM_COORDINATE_TYPE>
2
5
10

$$$$
