14802485
  -OEChem-10062121593D

 42 43  0     0  0  0  0  0  0999 V2000
   -1.9542    2.1132    0.3295 S   0  0  0  0  0  0  0  0  0  0  0  0
   -1.5328    3.1089   -0.6425 O   0  0  0  0  0  0  0  0  0  0  0  0
   -2.8235    2.5003    1.4283 O   0  0  0  0  0  0  0  0  0  0  0  0
    7.3681   -1.0465   -0.8027 O   0  0  0  0  0  0  0  0  0  0  0  0
    6.8186    0.0842    1.1319 O   0  0  0  0  0  0  0  0  0  0  0  0
   -0.5717    1.3396    0.9644 N   0  0  0  0  0  0  0  0  0  0  0  0
    2.7661    0.1301   -0.1754 N   0  0  0  0  0  0  0  0  0  0  0  0
   -4.6044   -2.4570    1.4038 N   0  0  0  0  0  0  0  0  0  0  0  0
    0.4037    0.7156    0.0589 C   0  0  0  0  0  0  0  0  0  0  0  0
   -2.7477    0.8020   -0.5296 C   0  0  0  0  0  0  0  0  0  0  0  0
    1.7802    0.7407    0.7073 C   0  0  0  0  0  0  0  0  0  0  0  0
   -3.3606   -0.2756    0.1304 C   0  0  0  0  0  0  0  0  0  0  0  0
    4.0944    0.1730    0.4202 C   0  0  0  0  0  0  0  0  0  0  0  0
   -3.9754   -1.2884   -0.6341 C   0  0  0  0  0  0  0  0  0  0  0  0
   -2.7452    0.8722   -1.9238 C   0  0  0  0  0  0  0  0  0  0  0  0
    5.1140   -0.4777   -0.5101 C   0  0  0  0  0  0  0  0  0  0  0  0
   -3.9669   -1.2077   -2.0365 C   0  0  0  0  0  0  0  0  0  0  0  0
   -3.3802   -0.3744    1.5264 C   0  0  0  0  0  0  0  0  0  0  0  0
   -3.3533   -0.1304   -2.6755 C   0  0  0  0  0  0  0  0  0  0  0  0
   -4.5746   -2.3435    0.0569 C   0  0  0  0  0  0  0  0  0  0  0  0
   -4.0062   -1.4690    2.1029 C   0  0  0  0  0  0  0  0  0  0  0  0
    6.5121   -0.4279    0.0640 C   0  0  0  0  0  0  0  0  0  0  0  0
    8.7395   -1.0815   -0.3946 C   0  0  0  0  0  0  0  0  0  0  0  0
    0.0938   -0.3178   -0.1332 H   0  0  0  0  0  0  0  0  0  0  0  0
    0.4305    1.2521   -0.8958 H   0  0  0  0  0  0  0  0  0  0  0  0
    1.7419    0.2002    1.6613 H   0  0  0  0  0  0  0  0  0  0  0  0
    2.0566    1.7792    0.9302 H   0  0  0  0  0  0  0  0  0  0  0  0
   -0.6261    0.9421    1.9104 H   0  0  0  0  0  0  0  0  0  0  0  0
    2.7748    0.6155   -1.0721 H   0  0  0  0  0  0  0  0  0  0  0  0
    4.0954   -0.3559    1.3814 H   0  0  0  0  0  0  0  0  0  0  0  0
    4.3900    1.2113    0.6168 H   0  0  0  0  0  0  0  0  0  0  0  0
   -2.2754    1.6908   -2.4606 H   0  0  0  0  0  0  0  0  0  0  0  0
    5.1277    0.0430   -1.4749 H   0  0  0  0  0  0  0  0  0  0  0  0
    4.8498   -1.5288   -0.6756 H   0  0  0  0  0  0  0  0  0  0  0  0
   -4.4369   -1.9819   -2.6386 H   0  0  0  0  0  0  0  0  0  0  0  0
   -2.9117    0.3261    2.2028 H   0  0  0  0  0  0  0  0  0  0  0  0
   -3.3493   -0.0746   -3.7602 H   0  0  0  0  0  0  0  0  0  0  0  0
   -5.0654   -3.1563   -0.4715 H   0  0  0  0  0  0  0  0  0  0  0  0
   -4.0356   -1.5858    3.1815 H   0  0  0  0  0  0  0  0  0  0  0  0
    9.3116   -1.5992   -1.1692 H   0  0  0  0  0  0  0  0  0  0  0  0
    8.8410   -1.6332    0.5448 H   0  0  0  0  0  0  0  0  0  0  0  0
    9.1296   -0.0646   -0.2904 H   0  0  0  0  0  0  0  0  0  0  0  0
  1  2  2  0  0  0  0
  1  3  2  0  0  0  0
  1  6  1  0  0  0  0
  1 10  1  0  0  0  0
  4 22  1  0  0  0  0
  4 23  1  0  0  0  0
  5 22  2  0  0  0  0
  6  9  1  0  0  0  0
  6 28  1  0  0  0  0
  7 11  1  0  0  0  0
  7 13  1  0  0  0  0
  7 29  1  0  0  0  0
  8 20  2  0  0  0  0
  8 21  1  0  0  0  0
  9 11  1  0  0  0  0
  9 24  1  0  0  0  0
  9 25  1  0  0  0  0
 10 12  1  0  0  0  0
 10 15  2  0  0  0  0
 11 26  1  0  0  0  0
 11 27  1  0  0  0  0
 12 14  2  0  0  0  0
 12 18  1  0  0  0  0
 13 16  1  0  0  0  0
 13 30  1  0  0  0  0
 13 31  1  0  0  0  0
 14 17  1  0  0  0  0
 14 20  1  0  0  0  0
 15 19  1  0  0  0  0
 15 32  1  0  0  0  0
 16 22  1  0  0  0  0
 16 33  1  0  0  0  0
 16 34  1  0  0  0  0
 17 19  2  0  0  0  0
 17 35  1  0  0  0  0
 18 21  2  0  0  0  0
 18 36  1  0  0  0  0
 19 37  1  0  0  0  0
 20 38  1  0  0  0  0
 21 39  1  0  0  0  0
 23 40  1  0  0  0  0
 23 41  1  0  0  0  0
 23 42  1  0  0  0  0
M  END
> <PUBCHEM_COMPOUND_CID>
14802485

> <PUBCHEM_CONFORMER_RMSD>
1

> <PUBCHEM_CONFORMER_DIVERSEORDER>
1
110
155
79
169
104
3
163
107
105
25
116
6
195
89
175
17
130
45
193
180
192
173
53
134
8
171
146
145
177
149
66
15
78
19
90
136
125
80
186
161
74
152
18
167
106
85
172
64
5
176
185
59
4
51
87
199
160
123
200
101
179
60
69
188
7
174
124
164
135
139
114
24
29
144
43
117
23
162
22
113
159
187
147
36
141
143
2
55
118
108
28
109
83
196
33
35
73
50
97
77
11
92
30
38
129
98
126
72
21
56
132
153
131
76
191
181
41
182
158
47
138
42
62
39
112
165
44
137
140
166
88
32
194
40
96
197
63
128
81
46
48
54
52
70
14
37
86
95
100
190
142
99
115
31
65
184
67
102
49
91
127
157
27
16
119
61
168
10
122
12
170
148
154
20
94
150
121
156
34
189
71
57
13
120
198
68
111
58
178
183
93
9
151
82
133
75
103
26
84

> <PUBCHEM_MMFF94_PARTIAL_CHARGES>
29
1 1.45
10 -0.01
11 0.27
13 0.27
15 -0.15
16 0.06
17 -0.15
18 -0.15
19 -0.15
2 -0.65
20 0.16
21 0.16
22 0.66
23 0.28
28 0.42
29 0.36
3 -0.65
32 0.15
35 0.15
36 0.15
37 0.15
38 0.15
39 0.15
4 -0.43
5 -0.57
6 -0.91
7 -0.9
8 -0.62
9 0.36

> <PUBCHEM_EFFECTIVE_ROTOR_COUNT>
9

> <PUBCHEM_PHARMACOPHORE_FEATURES>
9
1 2 acceptor
1 3 acceptor
1 5 acceptor
1 6 donor
1 7 cation
1 7 donor
1 8 acceptor
6 10 12 14 15 17 19 rings
6 8 12 14 18 20 21 rings

> <PUBCHEM_HEAVY_ATOM_COUNT>
23

> <PUBCHEM_ATOM_DEF_STEREO_COUNT>
0

> <PUBCHEM_ATOM_UDEF_STEREO_COUNT>
0

> <PUBCHEM_BOND_DEF_STEREO_COUNT>
0

> <PUBCHEM_BOND_UDEF_STEREO_COUNT>
0

> <PUBCHEM_ISOTOPIC_ATOM_COUNT>
0

> <PUBCHEM_COMPONENT_COUNT>
1

> <PUBCHEM_CACTVS_TAUTO_COUNT>
1

> <PUBCHEM_CONFORMER_ID>
00E1DE3500000001

> <PUBCHEM_MMFF94_ENERGY>
33.7297

> <PUBCHEM_FEATURE_SELFOVERLAP>
45.717

> <PUBCHEM_SHAPE_FINGERPRINT>
10291535 26 13262398830267444109
105312 117 8358263648053284753
11036077 4 15841552994201080807
11089746 13 14201397197270528588
11315181 36 18334012796108447220
12091667 2 18202282473138511128
12633257 1 15553895515262994969
13782708 43 18342736274941481882
13941219 33 17632306631161261131
14251740 79 17458347480534953643
14849402 71 15840693241118031474
14950920 106 15554157185655088154
15183329 4 14056711349748685330
15716309 27 17703790332159519546
17093844 174 17275098393346919032
17780758 139 15841551872792603706
17844677 252 17775565330414153728
18643901 69 17821732767012874595
18927931 339 18412827979751453542
20101258 96 18272367577043770089
20281389 69 9295290547652514230
21307412 95 17605832745741118763
21401589 2 11599468900742027423
22288116 15 16805329907491888770
2303208 19 17846783980105375716
23081809 10 12175611868657416912
23198884 109 13551186693131828906
23522609 53 16772688783170961360
23559900 14 17896027896571248376
328310 18 12685093695846261755
328310 630 11675174640027525854
484985 159 18410009945089096891
4938544 92 15410902842237707635
531348 171 16298933256966201762
58260988 114 18188791521247495457
58260988 647 17910940668450015735
6431902 208 18413670201859683062
999808 66 18272937120356987870

> <PUBCHEM_SHAPE_MULTIPOLES>
438.76
18.81
2.4
1.95
59.65
0.86
-0.62
-12.09
-1.26
-3.76
0.54
-3.44
-0.34
1.12

> <PUBCHEM_SHAPE_SELFOVERLAP>
900.074

> <PUBCHEM_SHAPE_VOLUME>
252.9

> <PUBCHEM_COORDINATE_TYPE>
2
5
10

$$$$
