25032704
  -OEChem-10062122033D

 28 30  0     0  0  0  0  0  0999 V2000
    4.7123   -0.9699    0.1869 Cl  0  0  0  0  0  0  0  0  0  0  0  0
   -3.9601   -0.4090    0.1310 O   0  0  0  0  0  0  0  0  0  0  0  0
   -0.9131    2.6821   -0.2007 O   0  0  0  0  0  0  0  0  0  0  0  0
    4.0761    1.9472   -0.1064 O   0  0  0  0  0  0  0  0  0  0  0  0
   -3.8763    1.8893   -0.1045 O   0  0  0  0  0  0  0  0  0  0  0  0
   -0.4525   -1.3691    0.2016 N   0  0  0  0  0  0  0  0  0  0  0  0
   -2.9473   -1.3445    0.1943 N   0  0  0  0  0  0  0  0  0  0  0  0
    0.7138   -0.5585    0.1269 C   0  0  0  0  0  0  0  0  0  0  0  0
   -1.7076   -0.7730    0.1368 C   0  0  0  0  0  0  0  0  0  0  0  0
    0.5941    0.8479   -0.0134 C   0  0  0  0  0  0  0  0  0  0  0  0
   -1.8807    0.5489    0.0081 C   0  0  0  0  0  0  0  0  0  0  0  0
   -0.2794   -2.8141    0.3387 C   0  0  0  0  0  0  0  0  0  0  0  0
   -0.7518    1.4763   -0.0800 C   0  0  0  0  0  0  0  0  0  0  0  0
    2.0181   -1.0832    0.1856 C   0  0  0  0  0  0  0  0  0  0  0  0
    1.7209    1.6774   -0.0909 C   0  0  0  0  0  0  0  0  0  0  0  0
   -3.3333    0.8046   -0.0022 C   0  0  0  0  0  0  0  0  0  0  0  0
    0.1293   -3.4196   -0.9902 C   0  0  0  0  0  0  0  0  0  0  0  0
    3.1428   -0.2544    0.1082 C   0  0  0  0  0  0  0  0  0  0  0  0
    2.9945    1.1215   -0.0298 C   0  0  0  0  0  0  0  0  0  0  0  0
    0.4386   -3.0617    1.1295 H   0  0  0  0  0  0  0  0  0  0  0  0
   -1.2132   -3.2902    0.6610 H   0  0  0  0  0  0  0  0  0  0  0  0
    2.1964   -2.1468    0.3145 H   0  0  0  0  0  0  0  0  0  0  0  0
   -3.1402   -2.3233    0.3442 H   0  0  0  0  0  0  0  0  0  0  0  0
    1.6075    2.7534   -0.1982 H   0  0  0  0  0  0  0  0  0  0  0  0
   -0.6458   -3.2460   -1.7454 H   0  0  0  0  0  0  0  0  0  0  0  0
    1.0638   -3.0239   -1.3939 H   0  0  0  0  0  0  0  0  0  0  0  0
    0.2492   -4.5029   -0.8839 H   0  0  0  0  0  0  0  0  0  0  0  0
    3.7719    2.8663   -0.1995 H   0  0  0  0  0  0  0  0  0  0  0  0
  1 18  1  0  0  0  0
  2  7  1  0  0  0  0
  2 16  1  0  0  0  0
  3 13  2  0  0  0  0
  4 19  1  0  0  0  0
  4 28  1  0  0  0  0
  5 16  2  0  0  0  0
  6  8  1  0  0  0  0
  6  9  1  0  0  0  0
  6 12  1  0  0  0  0
  7  9  1  0  0  0  0
  7 23  1  0  0  0  0
  8 10  1  0  0  0  0
  8 14  2  0  0  0  0
  9 11  2  0  0  0  0
 10 13  1  0  0  0  0
 10 15  2  0  0  0  0
 11 13  1  0  0  0  0
 11 16  1  0  0  0  0
 12 17  1  0  0  0  0
 12 20  1  0  0  0  0
 12 21  1  0  0  0  0
 14 18  1  0  0  0  0
 14 22  1  0  0  0  0
 15 19  1  0  0  0  0
 15 24  1  0  0  0  0
 17 25  1  0  0  0  0
 17 26  1  0  0  0  0
 17 27  1  0  0  0  0
 18 19  2  0  0  0  0
M  END
> <PUBCHEM_COMPOUND_CID>
25032704

> <PUBCHEM_CONFORMER_RMSD>
0.6

> <PUBCHEM_CONFORMER_DIVERSEORDER>
1

> <PUBCHEM_MMFF94_PARTIAL_CHARGES>
22
1 -0.18
10 0.09
11 0.03
12 0.37
13 0.47
14 -0.15
15 -0.15
16 0.71
18 0.18
19 0.08
2 -0.13
22 0.15
23 0.4
24 0.15
28 0.45
3 -0.57
4 -0.53
5 -0.57
6 -0.57
7 -0.52
8 0.1
9 0.2

> <PUBCHEM_EFFECTIVE_ROTOR_COUNT>
1

> <PUBCHEM_PHARMACOPHORE_FEATURES>
8
1 3 acceptor
1 4 donor
1 5 acceptor
1 6 cation
1 7 donor
5 2 7 9 11 16 rings
6 6 8 9 10 11 13 rings
6 8 10 14 15 18 19 rings

> <PUBCHEM_HEAVY_ATOM_COUNT>
19

> <PUBCHEM_ATOM_DEF_STEREO_COUNT>
0

> <PUBCHEM_ATOM_UDEF_STEREO_COUNT>
0

> <PUBCHEM_BOND_DEF_STEREO_COUNT>
0

> <PUBCHEM_BOND_UDEF_STEREO_COUNT>
0

> <PUBCHEM_ISOTOPIC_ATOM_COUNT>
0

> <PUBCHEM_COMPONENT_COUNT>
1

> <PUBCHEM_CACTVS_TAUTO_COUNT>
12

> <PUBCHEM_CONFORMER_ID>
017DF80000000001

> <PUBCHEM_MMFF94_ENERGY>
59.3041

> <PUBCHEM_FEATURE_SELFOVERLAP>
40.7

> <PUBCHEM_SHAPE_FINGERPRINT>
10062212 137 18410845547565533099
10411042 1 17041481086344288002
10608611 8 18410008862008323368
10616163 171 18410293566958455811
10967382 1 18410012134709664122
11132069 177 18412539890572683872
11578080 2 16841631554570800090
12035759 4 18056167311834770423
12500047 106 18269550701536227376
12715332 25 18272649060789327710
13140716 1 18409735049448090673
13380535 76 18337390435657202275
14178342 30 17909261391395971480
14790565 3 18410867537719538928
15006816 218 18268713818289254750
15042514 8 18409448128411339050
15099037 51 18410857625409253846
15196674 1 18409167722743763216
15309172 13 18411990151917553099
15442244 35 18409164433262849810
15475509 8 16189477746431486781
15536298 74 18412262852677095376
16945 1 18194405485394400537
17804303 29 18411140221324644048
18186145 218 18272100382732318360
193761 8 17761773962086042185
19591789 44 18410575123323533611
200 152 18060411396130688589
20028762 73 18058448875835724391
20510252 161 18343588464165131161
20645476 183 17824281473177224934
20739085 24 18190770594469218785
20905425 154 17980201881293167582
21267235 1 18408612460771336795
21501502 16 18266454494109338326
21524375 3 18410009931413001595
2334 1 18338236076062884073
23402539 116 18342447132625137318
23419403 2 15822340346728176513
23463225 33 18334857216458638664
23559900 14 18342174454347986672
238 59 17467589799458614957
2748010 2 18409733988606933959
335352 9 18337108939052570692
34934 24 18192989538035705872
350125 39 18336829684991066360
43471831 8 18263641762581676962
5104073 3 18408886247914895976
54173680 148 18192714672576372610
58051976 378 18268707212586991780
6138700 20 18122910829000875614
69090 78 18411415150486475962
7364860 26 18053101722612522935
81228 2 17833814341869031499
8809292 202 18260271845288687258
9709674 26 18339647844872340398

> <PUBCHEM_SHAPE_MULTIPOLES>
359.44
6.89
3.1
0.67
1.79
1.56
0.05
-1.91
-0.34
-0.12
0.55
0.06
0.22
0.03

> <PUBCHEM_SHAPE_SELFOVERLAP>
788.524

> <PUBCHEM_SHAPE_VOLUME>
195.9

> <PUBCHEM_COORDINATE_TYPE>
2
5
10

$$$$
