49830434
  -OEChem-10062121533D

 46 50  0     0  0  0  0  0  0999 V2000
   -0.9533    4.7736    0.9301 F   0  0  0  0  0  0  0  0  0  0  0  0
   -1.6521   -1.6247    1.0243 N   0  0  0  0  0  0  0  0  0  0  0  0
    0.0354   -2.9323    0.7598 N   0  0  0  0  0  0  0  0  0  0  0  0
   -1.2773   -2.9127    0.9630 N   0  0  0  0  0  0  0  0  0  0  0  0
    5.6631   -0.0454   -0.3537 N   0  0  0  0  0  0  0  0  0  0  0  0
    5.5627    0.6611   -1.4920 N   0  0  0  0  0  0  0  0  0  0  0  0
    3.6612    1.1874   -2.8478 N   0  0  0  0  0  0  0  0  0  0  0  0
   -0.5927   -0.7857    0.8632 C   0  0  0  0  0  0  0  0  0  0  0  0
    0.4701   -1.6376    0.6962 C   0  0  0  0  0  0  0  0  0  0  0  0
    1.8403   -1.2595    0.4853 C   0  0  0  0  0  0  0  0  0  0  0  0
   -3.0391   -1.2895    1.2366 C   0  0  0  0  0  0  0  0  0  0  0  0
   -0.6870    0.6533    0.8805 C   0  0  0  0  0  0  0  0  0  0  0  0
    3.5221   -0.1285   -0.8212 C   0  0  0  0  0  0  0  0  0  0  0  0
    2.1769   -0.4870   -0.6333 C   0  0  0  0  0  0  0  0  0  0  0  0
    4.4738   -0.5473    0.1020 C   0  0  0  0  0  0  0  0  0  0  0  0
    2.8163   -1.6666    1.3969 C   0  0  0  0  0  0  0  0  0  0  0  0
   -3.7519   -0.8677   -0.0243 C   0  0  0  0  0  0  0  0  0  0  0  0
    4.1596   -1.3175    1.2238 C   0  0  0  0  0  0  0  0  0  0  0  0
    4.2588    0.6088   -1.7730 C   0  0  0  0  0  0  0  0  0  0  0  0
   -0.9185    1.3516   -0.3047 C   0  0  0  0  0  0  0  0  0  0  0  0
   -0.5459    1.3471    2.0824 C   0  0  0  0  0  0  0  0  0  0  0  0
   -4.3755    0.3782   -0.0901 C   0  0  0  0  0  0  0  0  0  0  0  0
   -3.7870   -1.7240   -1.1248 C   0  0  0  0  0  0  0  0  0  0  0  0
   -1.0086    2.7433   -0.2880 C   0  0  0  0  0  0  0  0  0  0  0  0
   -0.6358    2.7389    2.0991 C   0  0  0  0  0  0  0  0  0  0  0  0
   -0.8672    3.4370    0.9139 C   0  0  0  0  0  0  0  0  0  0  0  0
   -5.0341    0.7680   -1.2563 C   0  0  0  0  0  0  0  0  0  0  0  0
   -4.4453   -1.3342   -2.2911 C   0  0  0  0  0  0  0  0  0  0  0  0
   -5.0689   -0.0882   -2.3567 C   0  0  0  0  0  0  0  0  0  0  0  0
   -3.0753   -0.5053    2.0016 H   0  0  0  0  0  0  0  0  0  0  0  0
   -3.5453   -2.1643    1.6635 H   0  0  0  0  0  0  0  0  0  0  0  0
    1.4276   -0.1815   -1.3576 H   0  0  0  0  0  0  0  0  0  0  0  0
    2.5454   -2.2655    2.2647 H   0  0  0  0  0  0  0  0  0  0  0  0
    4.9190   -1.6322    1.9308 H   0  0  0  0  0  0  0  0  0  0  0  0
   -1.0324    0.8267   -1.2503 H   0  0  0  0  0  0  0  0  0  0  0  0
   -0.3651    0.8175    3.0149 H   0  0  0  0  0  0  0  0  0  0  0  0
    6.5789   -0.1491    0.0652 H   0  0  0  0  0  0  0  0  0  0  0  0
   -4.3557    1.0559    0.7592 H   0  0  0  0  0  0  0  0  0  0  0  0
   -3.3150   -2.7019   -1.0897 H   0  0  0  0  0  0  0  0  0  0  0  0
   -1.1894    3.2870   -1.2105 H   0  0  0  0  0  0  0  0  0  0  0  0
   -0.5258    3.2793    3.0346 H   0  0  0  0  0  0  0  0  0  0  0  0
   -5.5190    1.7385   -1.3076 H   0  0  0  0  0  0  0  0  0  0  0  0
   -4.4741   -2.0015   -3.1475 H   0  0  0  0  0  0  0  0  0  0  0  0
    4.1904    1.7177   -3.5328 H   0  0  0  0  0  0  0  0  0  0  0  0
    2.6636    1.1259   -3.0273 H   0  0  0  0  0  0  0  0  0  0  0  0
   -5.5817    0.2151   -3.2648 H   0  0  0  0  0  0  0  0  0  0  0  0
  1 26  1  0  0  0  0
  2  4  1  0  0  0  0
  2  8  1  0  0  0  0
  2 11  1  0  0  0  0
  3  4  2  0  0  0  0
  3  9  1  0  0  0  0
  5  6  1  0  0  0  0
  5 15  1  0  0  0  0
  5 37  1  0  0  0  0
  6 19  2  0  0  0  0
  7 19  1  0  0  0  0
  7 44  1  0  0  0  0
  7 45  1  0  0  0  0
  8  9  2  0  0  0  0
  8 12  1  0  0  0  0
  9 10  1  0  0  0  0
 10 14  2  0  0  0  0
 10 16  1  0  0  0  0
 11 17  1  0  0  0  0
 11 30  1  0  0  0  0
 11 31  1  0  0  0  0
 12 20  2  0  0  0  0
 12 21  1  0  0  0  0
 13 14  1  0  0  0  0
 13 15  2  0  0  0  0
 13 19  1  0  0  0  0
 14 32  1  0  0  0  0
 15 18  1  0  0  0  0
 16 18  2  0  0  0  0
 16 33  1  0  0  0  0
 17 22  2  0  0  0  0
 17 23  1  0  0  0  0
 18 34  1  0  0  0  0
 20 24  1  0  0  0  0
 20 35  1  0  0  0  0
 21 25  2  0  0  0  0
 21 36  1  0  0  0  0
 22 27  1  0  0  0  0
 22 38  1  0  0  0  0
 23 28  2  0  0  0  0
 23 39  1  0  0  0  0
 24 26  2  0  0  0  0
 24 40  1  0  0  0  0
 25 26  1  0  0  0  0
 25 41  1  0  0  0  0
 27 29  2  0  0  0  0
 27 42  1  0  0  0  0
 28 29  1  0  0  0  0
 28 43  1  0  0  0  0
 29 46  1  0  0  0  0
M  END
> <PUBCHEM_COMPOUND_CID>
49830434

> <PUBCHEM_CONFORMER_RMSD>
0.8

> <PUBCHEM_CONFORMER_DIVERSEORDER>
1
17
22
26
14
21
29
34
32
13
18
27
30
33
20
9
31
10
25
28
24
19
3
23
16
12
15
6
11
8
2
4
5
7

> <PUBCHEM_MMFF94_PARTIAL_CHARGES>
43
1 -0.19
10 0.05
11 0.4
12 0.05
14 -0.15
15 -0.15
16 -0.15
17 -0.14
18 -0.15
19 0.37
2 0.31
20 -0.15
21 -0.15
22 -0.15
23 -0.15
24 -0.15
25 -0.15
26 0.19
27 -0.15
28 -0.15
29 -0.15
3 -0.23
32 0.15
33 0.15
34 0.15
35 0.15
36 0.15
37 0.27
38 0.15
39 0.15
4 -0.42
40 0.15
41 0.15
42 0.15
43 0.15
44 0.4
45 0.4
46 0.15
5 0.3
6 -0.71
7 -0.88
8 -0.2
9 0.17

> <PUBCHEM_EFFECTIVE_ROTOR_COUNT>
4

> <PUBCHEM_PHARMACOPHORE_FEATURES>
8
1 5 donor
1 7 donor
3 6 7 19 cation
5 2 3 4 8 9 rings
5 5 6 13 15 19 rings
6 10 13 14 15 16 18 rings
6 12 20 21 24 25 26 rings
6 17 22 23 27 28 29 rings

> <PUBCHEM_HEAVY_ATOM_COUNT>
29

> <PUBCHEM_ATOM_DEF_STEREO_COUNT>
0

> <PUBCHEM_ATOM_UDEF_STEREO_COUNT>
0

> <PUBCHEM_BOND_DEF_STEREO_COUNT>
0

> <PUBCHEM_BOND_UDEF_STEREO_COUNT>
0

> <PUBCHEM_ISOTOPIC_ATOM_COUNT>
0

> <PUBCHEM_COMPONENT_COUNT>
1

> <PUBCHEM_CACTVS_TAUTO_COUNT>
13

> <PUBCHEM_CONFORMER_ID>
02F85A2200000001

> <PUBCHEM_MMFF94_ENERGY>
67.6971

> <PUBCHEM_FEATURE_SELFOVERLAP>
40.69

> <PUBCHEM_SHAPE_FINGERPRINT>
10692045 39 12902086684171592952
10764073 3 12822202757534094873
11505856 67 17915203242269492416
12293681 160 18335136501049417107
12788726 201 18340207380057814169
13149001 5 18123744511758487555
13544653 18 14405185105583274423
13583140 156 16298400040781194602
13782708 43 16558761087841948462
13911987 19 18335426785236673239
14251757 17 17385723642541025821
14739800 52 13913418557499397087
15420108 30 16894814455528439362
15775530 1 17688306111579726723
15849732 13 17417269671246613755
16752209 62 18411417276532269634
17349148 13 18261670364224235890
17492 54 18334007302929606559
1813 80 17703500082274473069
19319366 153 17973437712346122667
20642791 239 18261117434033903481
20715895 44 17677320607311648279
21033648 29 13479419318486876381
21304303 64 18040162812048943509
2132832 1 17972018259492677298
22182313 1 18049151469760913627
22907989 373 18336278872324845896
23558518 356 17832146026627341627
23559900 14 18259980445133757378
2838139 119 16878213212664993887
3298306 158 17691969684170663792
3493558 16 17604141524198187671
4017518 198 16694682973003488256
465052 167 11671488058853424855
5081480 168 18129379461953865473
532947 4 18053936526768686400
6913067 236 17561074796521450126
7164475 11 18198052578359561802
999808 66 11527410185706898060

> <PUBCHEM_SHAPE_MULTIPOLES>
559.65
10.8
3.55
2.25
4.17
3.7
-0.98
-2.57
-8.12
-1.86
1.88
0
0.41
-1.76

> <PUBCHEM_SHAPE_SELFOVERLAP>
1263.184

> <PUBCHEM_SHAPE_VOLUME>
296.4

> <PUBCHEM_COORDINATE_TYPE>
2
5
10

$$$$
