10275001
  -OEChem-10052115163D

 61 66  0     0  0  0  0  0  0999 V2000
   -2.8714    4.0541    0.4152 O   0  0  0  0  0  0  0  0  0  0  0  0
    5.9169    0.2456    0.5519 O   0  0  0  0  0  0  0  0  0  0  0  0
   -1.2733   -5.7540    1.7313 O   0  0  0  0  0  0  0  0  0  0  0  0
    0.1059   -1.6813   -0.5952 N   0  0  0  0  0  0  0  0  0  0  0  0
   -0.5550    4.0608    0.2279 N   0  0  0  0  0  0  0  0  0  0  0  0
   -0.6159   -0.5334   -0.3835 C   0  0  0  0  0  0  0  0  0  0  0  0
   -1.9923   -0.3291   -0.2452 C   0  0  0  0  0  0  0  0  0  0  0  0
    0.2917    0.5251   -0.3150 C   0  0  0  0  0  0  0  0  0  0  0  0
   -2.5179    0.9763   -0.0281 C   0  0  0  0  0  0  0  0  0  0  0  0
   -0.2301    1.8160   -0.1001 C   0  0  0  0  0  0  0  0  0  0  0  0
   -1.6233    2.0267    0.0405 C   0  0  0  0  0  0  0  0  0  0  0  0
   -3.1014   -1.3620   -0.2935 C   0  0  0  0  0  0  0  0  0  0  0  0
    1.6002   -0.0255   -0.4942 C   0  0  0  0  0  0  0  0  0  0  0  0
    1.4508   -1.4032   -0.6664 C   0  0  0  0  0  0  0  0  0  0  0  0
   -3.9694    0.8554    0.0727 C   0  0  0  0  0  0  0  0  0  0  0  0
   -4.3241   -0.5073   -0.0807 C   0  0  0  0  0  0  0  0  0  0  0  0
    0.5090    3.1154    0.0149 C   0  0  0  0  0  0  0  0  0  0  0  0
   -0.4538   -3.0114   -0.7291 C   0  0  0  0  0  0  0  0  0  0  0  0
   -1.8139    3.4776    0.2511 C   0  0  0  0  0  0  0  0  0  0  0  0
    2.9022    0.5175   -0.5265 C   0  0  0  0  0  0  0  0  0  0  0  0
    2.5360   -2.2638   -0.8690 C   0  0  0  0  0  0  0  0  0  0  0  0
   -0.5803   -3.7635    0.5953 C   0  0  0  0  0  0  0  0  0  0  0  0
   -4.9770    1.7842    0.2774 C   0  0  0  0  0  0  0  0  0  0  0  0
   -5.6390   -0.9464   -0.0334 C   0  0  0  0  0  0  0  0  0  0  0  0
    3.9970   -0.3307   -0.7280 C   0  0  0  0  0  0  0  0  0  0  0  0
    3.8143   -1.7008   -0.8965 C   0  0  0  0  0  0  0  0  0  0  0  0
   -6.3098    1.3521    0.3270 C   0  0  0  0  0  0  0  0  0  0  0  0
   -6.6386   -0.0009    0.1731 C   0  0  0  0  0  0  0  0  0  0  0  0
    5.3751    0.2421   -0.7627 C   0  0  0  0  0  0  0  0  0  0  0  0
   -1.2250   -5.1364    0.4515 C   0  0  0  0  0  0  0  0  0  0  0  0
    7.2320    0.7834    0.5719 C   0  0  0  0  0  0  0  0  0  0  0  0
    7.1953    2.2150    0.0590 C   0  0  0  0  0  0  0  0  0  0  0  0
    7.7847    0.7023    1.9867 C   0  0  0  0  0  0  0  0  0  0  0  0
   -3.0086   -2.0922    0.5128 H   0  0  0  0  0  0  0  0  0  0  0  0
   -3.1648   -1.8305   -1.2790 H   0  0  0  0  0  0  0  0  0  0  0  0
    1.1802    3.1341    0.8771 H   0  0  0  0  0  0  0  0  0  0  0  0
    1.0360    3.3740   -0.9069 H   0  0  0  0  0  0  0  0  0  0  0  0
    0.1933   -3.5782   -1.4093 H   0  0  0  0  0  0  0  0  0  0  0  0
   -1.4047   -2.9518   -1.2572 H   0  0  0  0  0  0  0  0  0  0  0  0
   -0.4023    5.0569    0.3501 H   0  0  0  0  0  0  0  0  0  0  0  0
    3.0514    1.5854   -0.3927 H   0  0  0  0  0  0  0  0  0  0  0  0
    2.4097   -3.3336   -0.9951 H   0  0  0  0  0  0  0  0  0  0  0  0
   -1.1481   -3.1694    1.3216 H   0  0  0  0  0  0  0  0  0  0  0  0
    0.4121   -3.8818    1.0503 H   0  0  0  0  0  0  0  0  0  0  0  0
   -4.7844    2.8392    0.4022 H   0  0  0  0  0  0  0  0  0  0  0  0
   -5.8856   -1.9957   -0.1535 H   0  0  0  0  0  0  0  0  0  0  0  0
    4.6702   -2.3544   -1.0491 H   0  0  0  0  0  0  0  0  0  0  0  0
   -7.1019    2.0792    0.4875 H   0  0  0  0  0  0  0  0  0  0  0  0
   -7.6787   -0.3111    0.2154 H   0  0  0  0  0  0  0  0  0  0  0  0
    6.0147   -0.3468   -1.4323 H   0  0  0  0  0  0  0  0  0  0  0  0
    5.2989    1.2505   -1.1815 H   0  0  0  0  0  0  0  0  0  0  0  0
   -2.2436   -5.0617    0.0581 H   0  0  0  0  0  0  0  0  0  0  0  0
   -0.6392   -5.7763   -0.2152 H   0  0  0  0  0  0  0  0  0  0  0  0
    7.8784    0.1775   -0.0755 H   0  0  0  0  0  0  0  0  0  0  0  0
   -1.8222   -5.1944    2.3067 H   0  0  0  0  0  0  0  0  0  0  0  0
    8.1222    2.7418    0.3116 H   0  0  0  0  0  0  0  0  0  0  0  0
    7.1111    2.2578   -1.0316 H   0  0  0  0  0  0  0  0  0  0  0  0
    6.3549    2.7745    0.4843 H   0  0  0  0  0  0  0  0  0  0  0  0
    8.8092    1.0829    2.0389 H   0  0  0  0  0  0  0  0  0  0  0  0
    7.7787   -0.3347    2.3393 H   0  0  0  0  0  0  0  0  0  0  0  0
    7.1610    1.2745    2.6824 H   0  0  0  0  0  0  0  0  0  0  0  0
  1 19  2  0  0  0  0
  2 29  1  0  0  0  0
  2 31  1  0  0  0  0
  3 30  1  0  0  0  0
  3 55  1  0  0  0  0
  4  6  1  0  0  0  0
  4 14  1  0  0  0  0
  4 18  1  0  0  0  0
  5 17  1  0  0  0  0
  5 19  1  0  0  0  0
  5 40  1  0  0  0  0
  6  7  1  0  0  0  0
  6  8  2  0  0  0  0
  7  9  2  0  0  0  0
  7 12  1  0  0  0  0
  8 10  1  0  0  0  0
  8 13  1  0  0  0  0
  9 11  1  0  0  0  0
  9 15  1  0  0  0  0
 10 11  2  0  0  0  0
 10 17  1  0  0  0  0
 11 19  1  0  0  0  0
 12 16  1  0  0  0  0
 12 34  1  0  0  0  0
 12 35  1  0  0  0  0
 13 14  2  0  0  0  0
 13 20  1  0  0  0  0
 14 21  1  0  0  0  0
 15 16  1  0  0  0  0
 15 23  2  0  0  0  0
 16 24  2  0  0  0  0
 17 36  1  0  0  0  0
 17 37  1  0  0  0  0
 18 22  1  0  0  0  0
 18 38  1  0  0  0  0
 18 39  1  0  0  0  0
 20 25  2  0  0  0  0
 20 41  1  0  0  0  0
 21 26  2  0  0  0  0
 21 42  1  0  0  0  0
 22 30  1  0  0  0  0
 22 43  1  0  0  0  0
 22 44  1  0  0  0  0
 23 27  1  0  0  0  0
 23 45  1  0  0  0  0
 24 28  1  0  0  0  0
 24 46  1  0  0  0  0
 25 26  1  0  0  0  0
 25 29  1  0  0  0  0
 26 47  1  0  0  0  0
 27 28  2  0  0  0  0
 27 48  1  0  0  0  0
 28 49  1  0  0  0  0
 29 50  1  0  0  0  0
 29 51  1  0  0  0  0
 30 52  1  0  0  0  0
 30 53  1  0  0  0  0
 31 32  1  0  0  0  0
 31 33  1  0  0  0  0
 31 54  1  0  0  0  0
 32 56  1  0  0  0  0
 32 57  1  0  0  0  0
 32 58  1  0  0  0  0
 33 59  1  0  0  0  0
 33 60  1  0  0  0  0
 33 61  1  0  0  0  0
M  END
> <PUBCHEM_COMPOUND_CID>
10275001

> <PUBCHEM_CONFORMER_RMSD>
0.8

> <PUBCHEM_CONFORMER_DIVERSEORDER>
3
5
8
9
16
6
7
13
12
15
1
10
4
11
14
2

> <PUBCHEM_MMFF94_PARTIAL_CHARGES>
35
1 -0.57
10 -0.14
11 0.09
12 0.29
14 -0.15
16 -0.14
17 0.44
18 0.26
19 0.54
2 -0.56
20 -0.15
21 -0.15
23 -0.15
24 -0.15
25 -0.14
26 -0.15
27 -0.15
28 -0.15
29 0.42
3 -0.68
30 0.28
31 0.28
4 0.05
40 0.37
41 0.15
42 0.15
45 0.15
46 0.15
47 0.15
48 0.15
49 0.15
5 -0.73
55 0.4
6 -0.15
7 -0.14

> <PUBCHEM_EFFECTIVE_ROTOR_COUNT>
6.6

> <PUBCHEM_PHARMACOPHORE_FEATURES>
13
1 1 acceptor
1 2 acceptor
1 3 acceptor
1 3 donor
1 4 cation
1 5 donor
3 31 32 33 hydrophobe
5 4 6 8 13 14 rings
5 5 10 11 17 19 rings
5 7 9 12 15 16 rings
6 13 14 20 21 25 26 rings
6 15 16 23 24 27 28 rings
6 6 7 8 9 10 11 rings

> <PUBCHEM_HEAVY_ATOM_COUNT>
33

> <PUBCHEM_ATOM_DEF_STEREO_COUNT>
0

> <PUBCHEM_ATOM_UDEF_STEREO_COUNT>
0

> <PUBCHEM_BOND_DEF_STEREO_COUNT>
0

> <PUBCHEM_BOND_UDEF_STEREO_COUNT>
0

> <PUBCHEM_ISOTOPIC_ATOM_COUNT>
0

> <PUBCHEM_COMPONENT_COUNT>
1

> <PUBCHEM_CACTVS_TAUTO_COUNT>
2

> <PUBCHEM_CONFORMER_ID>
009CC8B900000003

> <PUBCHEM_MMFF94_ENERGY>
95.7905

> <PUBCHEM_FEATURE_SELFOVERLAP>
66.378

> <PUBCHEM_SHAPE_FINGERPRINT>
10 15 18408884062483403720
10050765 1 18125162624160124476
10074138 170 18338499954965272226
10290309 65 18263640667412339983
10906281 52 18269572644376228964
10930396 42 18265029479990624312
1100329 8 18337956825705127151
11578080 2 16557606711822313578
12035758 1 18339093686532429571
12838862 33 18340192030319458389
12857493 111 17980198909582285743
13140716 1 18122343738402685390
13402501 40 18273213110460079224
14028597 1 17822282453679732800
14394314 77 18412547583281623857
14790565 3 18339091410405588149
15274700 242 18339905048683458654
15324884 4 17771380653261991294
15439362 3 18195245749061385949
15927050 60 17838902886146339845
16087824 20 18268434526333083465
18603816 31 14346067668598911152
18608769 82 18272928332379146304
19611394 137 18190471643143681834
20642791 13 18271252608155392301
20642791 178 18262817249510371557
21421861 104 17830463782690451475
21703447 108 17978229361675358399
22311459 1 18411419540328278444
23559900 14 18343298193153706145
24771293 8 18202847660147901657
25019877 29 17917712405228409700
2747138 104 18338815466934849896
283562 15 18340489959110171105
3178227 256 18336845160222107203
3383291 50 18336549412420790691
350125 39 18343021090601467160
4073 2 18337675330119301782
4093350 32 16486982769456996156
5104073 3 18197216945501544896
5486654 2 18410583880893310118
6004065 56 18341891935599310183
9961470 85 18054502775647783696
9981440 41 18262525771010899074

> <PUBCHEM_SHAPE_MULTIPOLES>
651.55
15.75
5.52
1
20.21
5.25
-0.3
-8.16
-4.51
-3.56
-1.98
1.26
0.56
0.89

> <PUBCHEM_SHAPE_SELFOVERLAP>
1461.28

> <PUBCHEM_SHAPE_VOLUME>
352.7

> <PUBCHEM_COORDINATE_TYPE>
2
5
10

$$$$
