49831007
  -OEChem-10052120443D

 81 85  0     0  0  0  0  0  0999 V2000
    3.3311    5.8236    2.0418 O   0  0  0  0  0  0  0  0  0  0  0  0
    5.5828    3.9944   -1.9696 O   0  0  0  0  0  0  0  0  0  0  0  0
   -4.4756   -0.7080    2.7976 O   0  0  0  0  0  0  0  0  0  0  0  0
   -1.8217   -2.6803   -1.4581 O   0  0  0  0  0  0  0  0  0  0  0  0
    4.4554   -4.5281   -1.8392 O   0  0  0  0  0  0  0  0  0  0  0  0
    4.7923    4.2548    0.2137 N   0  0  0  0  0  0  0  0  0  0  0  0
   -3.0901   -1.0750    0.9340 N   0  0  0  0  0  0  0  0  0  0  0  0
    2.3450   -4.9157   -0.9331 N   0  0  0  0  0  0  0  0  0  0  0  0
    4.6562   -2.0498   -0.7229 N   0  0  0  0  0  0  0  0  0  0  0  0
    3.7195    0.0709   -1.2047 N   0  0  0  0  0  0  0  0  0  0  0  0
   -8.0309    2.2117   -1.6958 C   0  0  0  0  0  0  0  0  0  0  0  0
   -7.0482    1.4832   -0.8428 C   0  0  0  0  0  0  0  0  0  0  0  0
   -7.7633    3.7487   -1.6803 C   0  0  0  0  0  0  0  0  0  0  0  0
   -9.4916    1.9837   -1.1971 C   0  0  0  0  0  0  0  0  0  0  0  0
   -8.0391    1.8057   -3.2070 C   0  0  0  0  0  0  0  0  0  0  0  0
    4.3587    3.6919    1.4982 C   0  0  0  0  0  0  0  0  0  0  0  0
    4.8943    5.7133    0.1974 C   0  0  0  0  0  0  0  0  0  0  0  0
   -6.9602    1.7687    0.5197 C   0  0  0  0  0  0  0  0  0  0  0  0
   -6.2158    0.5173   -1.4083 C   0  0  0  0  0  0  0  0  0  0  0  0
    3.1105    4.4118    1.9950 C   0  0  0  0  0  0  0  0  0  0  0  0
    3.6187    6.3410    0.7397 C   0  0  0  0  0  0  0  0  0  0  0  0
   -5.2074    0.1221    0.7513 C   0  0  0  0  0  0  0  0  0  0  0  0
   -6.0397    1.0881    1.3167 C   0  0  0  0  0  0  0  0  0  0  0  0
   -5.2953   -0.1632   -0.6113 C   0  0  0  0  0  0  0  0  0  0  0  0
    5.1615    3.5214   -0.9150 C   0  0  0  0  0  0  0  0  0  0  0  0
    0.1555   -2.8268    1.2374 C   0  0  0  0  0  0  0  0  0  0  0  0
   -0.9212   -2.1403    0.6758 C   0  0  0  0  0  0  0  0  0  0  0  0
    1.3124   -3.2449    0.4218 C   0  0  0  0  0  0  0  0  0  0  0  0
   -2.0004   -1.7626    1.4748 C   0  0  0  0  0  0  0  0  0  0  0  0
   -4.2266   -0.6027    1.6013 C   0  0  0  0  0  0  0  0  0  0  0  0
    5.0522    2.0577   -0.8560 C   0  0  0  0  0  0  0  0  0  0  0  0
    3.5354   -2.7973   -0.5089 C   0  0  0  0  0  0  0  0  0  0  0  0
    2.4817   -2.4112    0.2275 C   0  0  0  0  0  0  0  0  0  0  0  0
    1.2938   -4.4549   -0.1606 C   0  0  0  0  0  0  0  0  0  0  0  0
    0.1530   -3.1355    2.5977 C   0  0  0  0  0  0  0  0  0  0  0  0
   -0.9264   -1.8076   -0.7850 C   0  0  0  0  0  0  0  0  0  0  0  0
   -2.0029   -2.0713    2.8351 C   0  0  0  0  0  0  0  0  0  0  0  0
    3.4987   -4.1560   -1.1589 C   0  0  0  0  0  0  0  0  0  0  0  0
   -0.9262   -2.7577    3.3964 C   0  0  0  0  0  0  0  0  0  0  0  0
    6.1158    1.2763   -0.4183 C   0  0  0  0  0  0  0  0  0  0  0  0
    4.7750   -0.6558   -0.7738 C   0  0  0  0  0  0  0  0  0  0  0  0
    3.8861    1.4123   -1.2347 C   0  0  0  0  0  0  0  0  0  0  0  0
    5.9827   -0.1071   -0.3734 C   0  0  0  0  0  0  0  0  0  0  0  0
    2.2143   -6.2465   -1.5178 C   0  0  0  0  0  0  0  0  0  0  0  0
   -8.4672    4.2826   -2.3293 H   0  0  0  0  0  0  0  0  0  0  0  0
   -7.8662    4.1719   -0.6751 H   0  0  0  0  0  0  0  0  0  0  0  0
   -6.7482    3.9705   -2.0302 H   0  0  0  0  0  0  0  0  0  0  0  0
  -10.2170    2.4953   -1.8403 H   0  0  0  0  0  0  0  0  0  0  0  0
   -9.7394    0.9156   -1.1935 H   0  0  0  0  0  0  0  0  0  0  0  0
   -9.6402    2.3608   -0.1793 H   0  0  0  0  0  0  0  0  0  0  0  0
   -8.7849    2.3832   -3.7669 H   0  0  0  0  0  0  0  0  0  0  0  0
   -7.0679    1.9946   -3.6791 H   0  0  0  0  0  0  0  0  0  0  0  0
   -8.2909    0.7467   -3.3372 H   0  0  0  0  0  0  0  0  0  0  0  0
    4.1729    2.6180    1.4372 H   0  0  0  0  0  0  0  0  0  0  0  0
    5.1876    3.8524    2.1977 H   0  0  0  0  0  0  0  0  0  0  0  0
    5.7449    5.9718    0.8389 H   0  0  0  0  0  0  0  0  0  0  0  0
    5.1043    6.0827   -0.8108 H   0  0  0  0  0  0  0  0  0  0  0  0
   -7.5950    2.5169    0.9855 H   0  0  0  0  0  0  0  0  0  0  0  0
   -6.2484    0.2505   -2.4589 H   0  0  0  0  0  0  0  0  0  0  0  0
    2.2479    4.2024    1.3511 H   0  0  0  0  0  0  0  0  0  0  0  0
    2.8618    4.0765    3.0067 H   0  0  0  0  0  0  0  0  0  0  0  0
    3.7403    7.4250    0.8277 H   0  0  0  0  0  0  0  0  0  0  0  0
    2.7653    6.1507    0.0780 H   0  0  0  0  0  0  0  0  0  0  0  0
   -5.9835    1.3293    2.3749 H   0  0  0  0  0  0  0  0  0  0  0  0
   -4.6974   -0.9340   -1.0882 H   0  0  0  0  0  0  0  0  0  0  0  0
   -3.0178   -0.8678   -0.0547 H   0  0  0  0  0  0  0  0  0  0  0  0
    2.4731   -1.4461    0.7271 H   0  0  0  0  0  0  0  0  0  0  0  0
    0.4516   -5.1323   -0.0547 H   0  0  0  0  0  0  0  0  0  0  0  0
    0.9837   -3.6703    3.0523 H   0  0  0  0  0  0  0  0  0  0  0  0
    0.0525   -1.9003   -1.2618 H   0  0  0  0  0  0  0  0  0  0  0  0
   -1.2258   -0.7672   -0.9558 H   0  0  0  0  0  0  0  0  0  0  0  0
   -2.7972   -1.8236    3.5237 H   0  0  0  0  0  0  0  0  0  0  0  0
   -0.9274   -3.0001    4.4553 H   0  0  0  0  0  0  0  0  0  0  0  0
    7.0511    1.7356   -0.1099 H   0  0  0  0  0  0  0  0  0  0  0  0
    5.4650   -2.5600   -1.0641 H   0  0  0  0  0  0  0  0  0  0  0  0
    3.0216    1.9687   -1.5840 H   0  0  0  0  0  0  0  0  0  0  0  0
    6.8082   -0.7233   -0.0320 H   0  0  0  0  0  0  0  0  0  0  0  0
    3.0958   -6.5125   -2.1072 H   0  0  0  0  0  0  0  0  0  0  0  0
    2.0937   -6.9799   -0.7142 H   0  0  0  0  0  0  0  0  0  0  0  0
    1.3357   -6.2654   -2.1706 H   0  0  0  0  0  0  0  0  0  0  0  0
   -1.8236   -2.4213   -2.3954 H   0  0  0  0  0  0  0  0  0  0  0  0
  1 20  1  0  0  0  0
  1 21  1  0  0  0  0
  2 25  2  0  0  0  0
  3 30  2  0  0  0  0
  4 36  1  0  0  0  0
  4 81  1  0  0  0  0
  5 38  2  0  0  0  0
  6 16  1  0  0  0  0
  6 17  1  0  0  0  0
  6 25  1  0  0  0  0
  7 29  1  0  0  0  0
  7 30  1  0  0  0  0
  7 66  1  0  0  0  0
  8 34  1  0  0  0  0
  8 38  1  0  0  0  0
  8 44  1  0  0  0  0
  9 32  1  0  0  0  0
  9 41  1  0  0  0  0
  9 75  1  0  0  0  0
 10 41  2  0  0  0  0
 10 42  1  0  0  0  0
 11 12  1  0  0  0  0
 11 13  1  0  0  0  0
 11 14  1  0  0  0  0
 11 15  1  0  0  0  0
 12 18  2  0  0  0  0
 12 19  1  0  0  0  0
 13 45  1  0  0  0  0
 13 46  1  0  0  0  0
 13 47  1  0  0  0  0
 14 48  1  0  0  0  0
 14 49  1  0  0  0  0
 14 50  1  0  0  0  0
 15 51  1  0  0  0  0
 15 52  1  0  0  0  0
 15 53  1  0  0  0  0
 16 20  1  0  0  0  0
 16 54  1  0  0  0  0
 16 55  1  0  0  0  0
 17 21  1  0  0  0  0
 17 56  1  0  0  0  0
 17 57  1  0  0  0  0
 18 23  1  0  0  0  0
 18 58  1  0  0  0  0
 19 24  2  0  0  0  0
 19 59  1  0  0  0  0
 20 60  1  0  0  0  0
 20 61  1  0  0  0  0
 21 62  1  0  0  0  0
 21 63  1  0  0  0  0
 22 23  2  0  0  0  0
 22 24  1  0  0  0  0
 22 30  1  0  0  0  0
 23 64  1  0  0  0  0
 24 65  1  0  0  0  0
 25 31  1  0  0  0  0
 26 27  2  0  0  0  0
 26 28  1  0  0  0  0
 26 35  1  0  0  0  0
 27 29  1  0  0  0  0
 27 36  1  0  0  0  0
 28 33  1  0  0  0  0
 28 34  2  0  0  0  0
 29 37  2  0  0  0  0
 31 40  1  0  0  0  0
 31 42  2  0  0  0  0
 32 33  2  0  0  0  0
 32 38  1  0  0  0  0
 33 67  1  0  0  0  0
 34 68  1  0  0  0  0
 35 39  2  0  0  0  0
 35 69  1  0  0  0  0
 36 70  1  0  0  0  0
 36 71  1  0  0  0  0
 37 39  1  0  0  0  0
 37 72  1  0  0  0  0
 39 73  1  0  0  0  0
 40 43  2  0  0  0  0
 40 74  1  0  0  0  0
 41 43  1  0  0  0  0
 42 76  1  0  0  0  0
 43 77  1  0  0  0  0
 44 78  1  0  0  0  0
 44 79  1  0  0  0  0
 44 80  1  0  0  0  0
M  END
> <PUBCHEM_COMPOUND_CID>
49831007

> <PUBCHEM_CONFORMER_RMSD>
1.2

> <PUBCHEM_CONFORMER_DIVERSEORDER>
1
85
50
70
57
6
93
63
77
25
45
37
36
16
82
33
17
87
67
79
27
90
84
61
31
35
60
83
26
75
89
39
34
8
53
56
81
69
51
10
92
73
46
64
74
3
68
66
20
7
52
15
23
40
91
71
38
88
65
11
19
14
54
62
30
47
12
13
78
48
80
49
22
4
28
41
5
29
43
76
72
86
9
32
59
21
58
18
24
44
42
2
55

> <PUBCHEM_MMFF94_PARTIAL_CHARGES>
56
1 -0.56
10 -0.62
11 0.14
12 -0.14
16 0.3
17 0.3
18 -0.15
19 -0.15
2 -0.57
20 0.28
21 0.28
22 0.09
23 -0.15
24 -0.15
25 0.54
26 0.03
27 -0.14
28 -0.03
29 0.12
3 -0.57
30 0.54
31 0.09
32 0.11
33 -0.15
34 -0.04
35 -0.15
36 0.42
37 -0.15
38 0.62
39 -0.15
4 -0.68
40 -0.15
41 0.41
42 0.16
43 -0.15
44 0.3
5 -0.57
58 0.15
59 0.15
6 -0.66
64 0.15
65 0.15
66 0.37
67 0.15
68 0.15
69 0.15
7 -0.55
72 0.15
73 0.15
74 0.15
75 0.4
76 0.15
77 0.15
8 -0.47
81 0.4
9 -0.6

> <PUBCHEM_EFFECTIVE_ROTOR_COUNT>
11.2

> <PUBCHEM_PHARMACOPHORE_FEATURES>
15
1 1 acceptor
1 2 acceptor
1 3 acceptor
1 4 acceptor
1 4 donor
1 5 acceptor
1 7 donor
1 9 donor
3 9 10 41 cation
4 11 13 14 15 hydrophobe
6 1 6 16 17 20 21 rings
6 10 31 40 41 42 43 rings
6 12 18 19 22 23 24 rings
6 26 27 29 35 37 39 rings
6 8 28 32 33 34 38 rings

> <PUBCHEM_HEAVY_ATOM_COUNT>
44

> <PUBCHEM_ATOM_DEF_STEREO_COUNT>
0

> <PUBCHEM_ATOM_UDEF_STEREO_COUNT>
0

> <PUBCHEM_BOND_DEF_STEREO_COUNT>
0

> <PUBCHEM_BOND_UDEF_STEREO_COUNT>
0

> <PUBCHEM_ISOTOPIC_ATOM_COUNT>
0

> <PUBCHEM_COMPONENT_COUNT>
1

> <PUBCHEM_CACTVS_TAUTO_COUNT>
10

> <PUBCHEM_CONFORMER_ID>
02F85C5F00000001

> <PUBCHEM_MMFF94_ENERGY>
161.339

> <PUBCHEM_FEATURE_SELFOVERLAP>
76.124

> <PUBCHEM_SHAPE_FINGERPRINT>
10556698 54 18264204699887696621
11146346 40 18271233951187119985
11386260 185 18197502826804082222
11399510 152 17316778869591528026
11478447 147 18410004421545000205
11479125 193 18408882962581223701
11621639 179 18261405460038001390
12539747 72 17385448726438462251
15082195 135 18270113505523882587
15274700 147 17400372633547383055
15320295 198 18261970595191045030
15400415 2 18125450953889477968
15530120 55 18130210619857050079
15705408 1 16765945164398645559
15721738 15 18343301504694973760
19053607 189 17895768420506381156
19304152 47 17181105843578579000
21033648 29 17095820827968807659
23516275 100 18040997323883951157
23569914 2 17896855790878886917
3146122 72 18335134272921901829
3525247 18 18190459544448883413
376196 1 18263372528647232922
4760202 170 18193830453983183029
56611832 157 12220449548594498833

> <PUBCHEM_SHAPE_MULTIPOLES>
851.25
22.86
10.09
2.76
49.41
5.93
-1.31
30.09
14.15
-21
-0.19
2.8
-0.71
7.02

> <PUBCHEM_SHAPE_SELFOVERLAP>
1844.547

> <PUBCHEM_SHAPE_VOLUME>
462.6

> <PUBCHEM_COORDINATE_TYPE>
2
5
10

$$$$
