11299662
  -OEChem-10052120443D

 28 29  0     0  0  0  0  0  0999 V2000
    2.7799    2.1168    0.4690 S   0  0  0  0  0  0  0  0  0  0  0  0
    2.9798   -2.4622   -0.1325 O   0  0  0  0  0  0  0  0  0  0  0  0
   -0.4073    0.0916    0.0900 N   0  0  0  0  0  0  0  0  0  0  0  0
    0.2322    1.2656    0.2704 N   0  0  0  0  0  0  0  0  0  0  0  0
   -0.0089   -2.2328   -0.2099 N   0  0  0  0  0  0  0  0  0  0  0  0
   -2.3924   -1.1352   -0.1415 N   0  0  0  0  0  0  0  0  0  0  0  0
    4.1413   -0.5330    0.1489 N   0  0  0  0  0  0  0  0  0  0  0  0
    0.4464   -0.9734   -0.0286 C   0  0  0  0  0  0  0  0  0  0  0  0
    1.7161   -0.4607    0.0808 C   0  0  0  0  0  0  0  0  0  0  0  0
    1.5228    0.9217    0.2637 C   0  0  0  0  0  0  0  0  0  0  0  0
   -1.7925    0.0622    0.0417 C   0  0  0  0  0  0  0  0  0  0  0  0
    2.9307   -1.2208    0.0159 C   0  0  0  0  0  0  0  0  0  0  0  0
   -2.4763    1.2589    0.1838 C   0  0  0  0  0  0  0  0  0  0  0  0
   -3.8655    1.2243    0.1350 C   0  0  0  0  0  0  0  0  0  0  0  0
   -3.7437   -1.1296   -0.1836 C   0  0  0  0  0  0  0  0  0  0  0  0
   -4.5189    0.0111   -0.0519 C   0  0  0  0  0  0  0  0  0  0  0  0
    2.4565    3.1953   -0.9513 C   0  0  0  0  0  0  0  0  0  0  0  0
   -1.9950    2.2201    0.3306 H   0  0  0  0  0  0  0  0  0  0  0  0
    0.6275   -3.0195   -0.2951 H   0  0  0  0  0  0  0  0  0  0  0  0
   -0.9930   -2.4702   -0.2712 H   0  0  0  0  0  0  0  0  0  0  0  0
   -4.4385    2.1405    0.2422 H   0  0  0  0  0  0  0  0  0  0  0  0
   -4.2046   -2.1007   -0.3312 H   0  0  0  0  0  0  0  0  0  0  0  0
   -5.6009   -0.0397   -0.0932 H   0  0  0  0  0  0  0  0  0  0  0  0
    3.2165    3.9802   -0.9870 H   0  0  0  0  0  0  0  0  0  0  0  0
    1.4739    3.6662   -0.8609 H   0  0  0  0  0  0  0  0  0  0  0  0
    2.5008    2.6233   -1.8821 H   0  0  0  0  0  0  0  0  0  0  0  0
    4.1985    0.4705    0.2793 H   0  0  0  0  0  0  0  0  0  0  0  0
    5.0231   -1.0341    0.1161 H   0  0  0  0  0  0  0  0  0  0  0  0
  1 10  1  0  0  0  0
  1 17  1  0  0  0  0
  2 12  2  0  0  0  0
  3  4  1  0  0  0  0
  3  8  1  0  0  0  0
  3 11  1  0  0  0  0
  4 10  2  0  0  0  0
  5  8  1  0  0  0  0
  5 19  1  0  0  0  0
  5 20  1  0  0  0  0
  6 11  1  0  0  0  0
  6 15  2  0  0  0  0
  7 12  1  0  0  0  0
  7 27  1  0  0  0  0
  7 28  1  0  0  0  0
  8  9  2  0  0  0  0
  9 10  1  0  0  0  0
  9 12  1  0  0  0  0
 11 13  2  0  0  0  0
 13 14  1  0  0  0  0
 13 18  1  0  0  0  0
 14 16  2  0  0  0  0
 14 21  1  0  0  0  0
 15 16  1  0  0  0  0
 15 22  1  0  0  0  0
 16 23  1  0  0  0  0
 17 24  1  0  0  0  0
 17 25  1  0  0  0  0
 17 26  1  0  0  0  0
M  END
> <PUBCHEM_COMPOUND_CID>
11299662

> <PUBCHEM_CONFORMER_RMSD>
0.6

> <PUBCHEM_CONFORMER_DIVERSEORDER>
1
27
20
32
29
8
14
23
10
18
28
17
7
22
11
30
6
34
21
25
2
35
12
31
3
19
26
33
16
9
13
4
15
5
24

> <PUBCHEM_MMFF94_PARTIAL_CHARGES>
25
1 -0.28
10 0.34
11 0.29
12 0.72
13 -0.15
14 -0.15
15 0.16
16 -0.15
17 0.23
18 0.15
19 0.4
2 -0.57
20 0.4
21 0.15
22 0.15
23 0.15
27 0.37
28 0.37
3 0.59
4 -0.71
5 -0.88
6 -0.62
7 -0.8
8 -0.07
9 -0.09

> <PUBCHEM_EFFECTIVE_ROTOR_COUNT>
3

> <PUBCHEM_PHARMACOPHORE_FEATURES>
9
1 17 hydrophobe
1 2 acceptor
1 4 acceptor
1 5 cation
1 5 donor
1 6 acceptor
1 7 donor
5 3 4 8 9 10 rings
6 6 11 13 14 15 16 rings

> <PUBCHEM_HEAVY_ATOM_COUNT>
17

> <PUBCHEM_ATOM_DEF_STEREO_COUNT>
0

> <PUBCHEM_ATOM_UDEF_STEREO_COUNT>
0

> <PUBCHEM_BOND_DEF_STEREO_COUNT>
0

> <PUBCHEM_BOND_UDEF_STEREO_COUNT>
0

> <PUBCHEM_ISOTOPIC_ATOM_COUNT>
0

> <PUBCHEM_COMPONENT_COUNT>
1

> <PUBCHEM_CACTVS_TAUTO_COUNT>
7

> <PUBCHEM_CONFORMER_ID>
00AC6B4E00000001

> <PUBCHEM_MMFF94_ENERGY>
42.4832

> <PUBCHEM_FEATURE_SELFOVERLAP>
45.671

> <PUBCHEM_SHAPE_FINGERPRINT>
10608611 8 18410006629036708081
10967382 1 18339922713783005464
11471102 20 18411695448362436270
12173636 292 17545601613949241148
13140716 1 18412830170464531585
13380535 76 18192708067127096336
14325111 11 18412543240895139913
14415576 193 18411420630732941869
15196674 1 18412543241264223091
15442244 35 18341051796297667737
15536298 74 18343300392139505640
16945 1 18267863870015024457
17134986 127 18046917249359491260
17492 89 18411980295253322127
18186145 218 18409164407129185605
19422 9 18272090509050715785
19591789 44 16751852152543883787
200 152 17917135131959773925
20645477 70 18412541016154997143
20671657 1 18339364183583378148
21267235 1 18341338829399948075
21501502 16 18341613750161340177
21524375 3 17972312095311607032
221490 88 18409455816328562603
2255824 54 18335140899354501066
22854114 111 18410294739289394229
22959321 4 18410856568604231611
2334 1 18340768251257392641
23366157 5 18186518834712397728
23402539 116 18269547252904523886
23463225 33 18412825759322030607
23557571 272 13614244754758830259
23558518 356 18118117202372849890
23559900 14 18413101758104591344
2748010 2 18410854382244455269
3071541 12 18410296951572182508
3071541 158 18336827502968156668
3071541 37 18336550533454357004
335352 9 18196372511833785101
350125 39 18411141324862649049
4409770 3 17178829342748909332
474 4 18042685181453183476
5104073 3 18412265051911205515
57096353 35 18128249185338315229
58051976 378 18268991058354280637
7364860 26 18413107294755551952
77779 3 18411982464332209977
84936 182 18201438150618312008
8809292 202 18334861606437760179
9709674 26 18410858780423374379
9981440 41 17904477755479496568

> <PUBCHEM_SHAPE_MULTIPOLES>
322.93
7.72
2.73
0.69
4.58
0.71
0.04
0.45
0.08
-2.84
0.48
-0.18
0.24
-0.37

> <PUBCHEM_SHAPE_SELFOVERLAP>
682.931

> <PUBCHEM_SHAPE_VOLUME>
184.3

> <PUBCHEM_COORDINATE_TYPE>
2
5
10

$$$$
