49830757
  -OEChem-10052115183D

 68 73  0     0  0  0  0  0  0999 V2000
   -4.6175   -0.0262    0.5491 O   0  0  0  0  0  0  0  0  0  0  0  0
    1.9754    1.5003    0.6523 N   0  0  0  0  0  0  0  0  0  0  0  0
    5.6385   -2.3295    0.0089 N   0  0  0  0  0  0  0  0  0  0  0  0
    2.8071    2.2217   -1.4929 N   0  0  0  0  0  0  0  0  0  0  0  0
    1.0556    3.0745   -2.9531 N   0  0  0  0  0  0  0  0  0  0  0  0
   -1.2340    3.1725   -2.2994 N   0  0  0  0  0  0  0  0  0  0  0  0
    4.4714   -0.6610    1.3755 C   0  0  0  0  0  0  0  0  0  0  0  0
    3.2478    1.0734    1.2300 C   0  0  0  0  0  0  0  0  0  0  0  0
    3.1297   -0.2487    2.0166 C   0  0  0  0  0  0  0  0  0  0  0  0
    4.1298    0.3063    0.2229 C   0  0  0  0  0  0  0  0  0  0  0  0
    4.5729   -2.1264    0.9791 C   0  0  0  0  0  0  0  0  0  0  0  0
    5.5231   -3.6107   -0.6871 C   0  0  0  0  0  0  0  0  0  0  0  0
    6.9624   -2.3528    0.6301 C   0  0  0  0  0  0  0  0  0  0  0  0
    0.7569    1.4417    1.2789 C   0  0  0  0  0  0  0  0  0  0  0  0
    1.8185    2.0231   -0.6037 C   0  0  0  0  0  0  0  0  0  0  0  0
    6.8937   -3.7751   -1.3270 C   0  0  0  0  0  0  0  0  0  0  0  0
    7.8402   -2.9513   -0.4593 C   0  0  0  0  0  0  0  0  0  0  0  0
   -0.1948    1.9344    0.4114 C   0  0  0  0  0  0  0  0  0  0  0  0
    0.4701    2.3056   -0.7852 C   0  0  0  0  0  0  0  0  0  0  0  0
    0.6218    0.9161    2.6566 C   0  0  0  0  0  0  0  0  0  0  0  0
   -1.5873    2.0142    0.7550 C   0  0  0  0  0  0  0  0  0  0  0  0
    0.1060    2.8507   -2.0156 C   0  0  0  0  0  0  0  0  0  0  0  0
    2.3299    2.7505   -2.6380 C   0  0  0  0  0  0  0  0  0  0  0  0
   -2.4364    0.9417    0.4821 C   0  0  0  0  0  0  0  0  0  0  0  0
   -2.0903    3.1649    1.3624 C   0  0  0  0  0  0  0  0  0  0  0  0
   -3.7884    1.0196    0.8165 C   0  0  0  0  0  0  0  0  0  0  0  0
   -3.4423    3.2430    1.6965 C   0  0  0  0  0  0  0  0  0  0  0  0
   -4.2914    2.1704    1.4238 C   0  0  0  0  0  0  0  0  0  0  0  0
   -4.0374   -1.1718   -0.0732 C   0  0  0  0  0  0  0  0  0  0  0  0
   -5.1090   -2.1944   -0.3128 C   0  0  0  0  0  0  0  0  0  0  0  0
   -5.3910   -3.1508    0.6627 C   0  0  0  0  0  0  0  0  0  0  0  0
   -5.8230   -2.1888   -1.5112 C   0  0  0  0  0  0  0  0  0  0  0  0
   -6.3872   -4.1016    0.4398 C   0  0  0  0  0  0  0  0  0  0  0  0
   -6.8191   -3.1395   -1.7339 C   0  0  0  0  0  0  0  0  0  0  0  0
   -7.1013   -4.0957   -0.7582 C   0  0  0  0  0  0  0  0  0  0  0  0
    5.3317   -0.3211    1.9695 H   0  0  0  0  0  0  0  0  0  0  0  0
    3.7681    1.8746    1.7680 H   0  0  0  0  0  0  0  0  0  0  0  0
    3.1708   -0.1766    3.1070 H   0  0  0  0  0  0  0  0  0  0  0  0
    2.3176   -0.9244    1.7241 H   0  0  0  0  0  0  0  0  0  0  0  0
    3.6026   -0.1804   -0.6077 H   0  0  0  0  0  0  0  0  0  0  0  0
    4.9820    0.8631   -0.1782 H   0  0  0  0  0  0  0  0  0  0  0  0
    3.6221   -2.4321    0.5217 H   0  0  0  0  0  0  0  0  0  0  0  0
    4.6990   -2.7566    1.8686 H   0  0  0  0  0  0  0  0  0  0  0  0
    4.7270   -3.6039   -1.4382 H   0  0  0  0  0  0  0  0  0  0  0  0
    5.3382   -4.4361    0.0126 H   0  0  0  0  0  0  0  0  0  0  0  0
    7.3099   -1.3547    0.9142 H   0  0  0  0  0  0  0  0  0  0  0  0
    6.9880   -2.9979    1.5178 H   0  0  0  0  0  0  0  0  0  0  0  0
    6.8947   -3.3836   -2.3511 H   0  0  0  0  0  0  0  0  0  0  0  0
    7.1938   -4.8269   -1.3692 H   0  0  0  0  0  0  0  0  0  0  0  0
    8.6412   -3.5663   -0.0366 H   0  0  0  0  0  0  0  0  0  0  0  0
    8.3045   -2.1626   -1.0629 H   0  0  0  0  0  0  0  0  0  0  0  0
   -0.2949    1.2970    3.1221 H   0  0  0  0  0  0  0  0  0  0  0  0
    1.4304    1.2496    3.3130 H   0  0  0  0  0  0  0  0  0  0  0  0
    0.5351   -0.1734    2.6711 H   0  0  0  0  0  0  0  0  0  0  0  0
    3.0667    2.9418   -3.4106 H   0  0  0  0  0  0  0  0  0  0  0  0
   -1.9911    0.0713    0.0105 H   0  0  0  0  0  0  0  0  0  0  0  0
   -1.4422    4.0101    1.5816 H   0  0  0  0  0  0  0  0  0  0  0  0
   -1.4573    3.5661   -3.2037 H   0  0  0  0  0  0  0  0  0  0  0  0
   -1.9681    3.0184   -1.6243 H   0  0  0  0  0  0  0  0  0  0  0  0
   -3.8341    4.1390    2.1690 H   0  0  0  0  0  0  0  0  0  0  0  0
   -5.3436    2.2371    1.6863 H   0  0  0  0  0  0  0  0  0  0  0  0
   -3.5926   -0.9085   -1.0421 H   0  0  0  0  0  0  0  0  0  0  0  0
   -3.2667   -1.6163    0.5705 H   0  0  0  0  0  0  0  0  0  0  0  0
   -4.8434   -3.1644    1.6013 H   0  0  0  0  0  0  0  0  0  0  0  0
   -5.6146   -1.4476   -2.2781 H   0  0  0  0  0  0  0  0  0  0  0  0
   -6.6073   -4.8459    1.1995 H   0  0  0  0  0  0  0  0  0  0  0  0
   -7.3757   -3.1349   -2.6665 H   0  0  0  0  0  0  0  0  0  0  0  0
   -7.8772   -4.8357   -0.9316 H   0  0  0  0  0  0  0  0  0  0  0  0
  1 26  1  0  0  0  0
  1 29  1  0  0  0  0
  2  8  1  0  0  0  0
  2 14  1  0  0  0  0
  2 15  1  0  0  0  0
  3 11  1  0  0  0  0
  3 12  1  0  0  0  0
  3 13  1  0  0  0  0
  4 15  2  0  0  0  0
  4 23  1  0  0  0  0
  5 22  1  0  0  0  0
  5 23  2  0  0  0  0
  6 22  1  0  0  0  0
  6 58  1  0  0  0  0
  6 59  1  0  0  0  0
  7  9  1  0  0  0  0
  7 10  1  0  0  0  0
  7 11  1  0  0  0  0
  7 36  1  0  0  0  0
  8  9  1  0  0  0  0
  8 10  1  0  0  0  0
  8 37  1  0  0  0  0
  9 38  1  0  0  0  0
  9 39  1  0  0  0  0
 10 40  1  0  0  0  0
 10 41  1  0  0  0  0
 11 42  1  0  0  0  0
 11 43  1  0  0  0  0
 12 16  1  0  0  0  0
 12 44  1  0  0  0  0
 12 45  1  0  0  0  0
 13 17  1  0  0  0  0
 13 46  1  0  0  0  0
 13 47  1  0  0  0  0
 14 18  2  0  0  0  0
 14 20  1  0  0  0  0
 15 19  1  0  0  0  0
 16 17  1  0  0  0  0
 16 48  1  0  0  0  0
 16 49  1  0  0  0  0
 17 50  1  0  0  0  0
 17 51  1  0  0  0  0
 18 19  1  0  0  0  0
 18 21  1  0  0  0  0
 19 22  2  0  0  0  0
 20 52  1  0  0  0  0
 20 53  1  0  0  0  0
 20 54  1  0  0  0  0
 21 24  2  0  0  0  0
 21 25  1  0  0  0  0
 23 55  1  0  0  0  0
 24 26  1  0  0  0  0
 24 56  1  0  0  0  0
 25 27  2  0  0  0  0
 25 57  1  0  0  0  0
 26 28  2  0  0  0  0
 27 28  1  0  0  0  0
 27 60  1  0  0  0  0
 28 61  1  0  0  0  0
 29 30  1  0  0  0  0
 29 62  1  0  0  0  0
 29 63  1  0  0  0  0
 30 31  2  0  0  0  0
 30 32  1  0  0  0  0
 31 33  1  0  0  0  0
 31 64  1  0  0  0  0
 32 34  2  0  0  0  0
 32 65  1  0  0  0  0
 33 35  2  0  0  0  0
 33 66  1  0  0  0  0
 34 35  1  0  0  0  0
 34 67  1  0  0  0  0
 35 68  1  0  0  0  0
M  END
> <PUBCHEM_COMPOUND_CID>
49830757

> <PUBCHEM_CONFORMER_RMSD>
1.2

> <PUBCHEM_CONFORMER_DIVERSEORDER>
1
102
25
32
80
94
90
140
113
127
31
103
49
126
143
89
119
136
29
139
78
83
47
123
54
20
18
133
34
142
92
121
51
109
43
86
108
70
141
8
61
114
132
111
93
77
115
98
62
38
84
81
26
53
76
134
87
37
73
74
82
67
24
112
85
44
36
79
91
95
48
16
124
125
120
131
65
35
107
128
137
117
101
41
22
100
104
88
33
75
21
135
71
27
144
63
28
60
68
105
118
59
23
64
45
96
9
66
57
52
11
42
15
122
56
116
55
12
39
130
69
4
2
138
72
110
19
30
40
10
50
99
17
3
97
6
46
129
5
13
58
106
7
14

> <PUBCHEM_MMFF94_PARTIAL_CHARGES>
41
1 -0.36
11 0.27
12 0.27
13 0.27
14 -0.33
15 0.11
18 -0.05
2 0.22
20 0.18
21 0.05
22 0.41
23 0.47
24 -0.15
25 -0.15
26 0.08
27 -0.15
28 -0.15
29 0.42
3 -0.81
30 -0.14
31 -0.15
32 -0.15
33 -0.15
34 -0.15
35 -0.15
4 -0.57
5 -0.62
55 0.15
56 0.15
57 0.15
58 0.4
59 0.4
6 -0.9
60 0.15
61 0.15
64 0.15
65 0.15
66 0.15
67 0.15
68 0.15
8 0.09

> <PUBCHEM_EFFECTIVE_ROTOR_COUNT>
8.8

> <PUBCHEM_PHARMACOPHORE_FEATURES>
12
1 1 acceptor
1 3 cation
1 6 cation
1 6 donor
3 2 4 15 cation
3 4 5 23 cation
4 7 8 9 10 rings
5 2 14 15 18 19 rings
5 3 12 13 16 17 rings
6 21 24 25 26 27 28 rings
6 30 31 32 33 34 35 rings
6 4 5 15 19 22 23 rings

> <PUBCHEM_HEAVY_ATOM_COUNT>
35

> <PUBCHEM_ATOM_DEF_STEREO_COUNT>
0

> <PUBCHEM_ATOM_UDEF_STEREO_COUNT>
0

> <PUBCHEM_BOND_DEF_STEREO_COUNT>
0

> <PUBCHEM_BOND_UDEF_STEREO_COUNT>
0

> <PUBCHEM_ISOTOPIC_ATOM_COUNT>
0

> <PUBCHEM_COMPONENT_COUNT>
1

> <PUBCHEM_CACTVS_TAUTO_COUNT>
4

> <PUBCHEM_CONFORMER_ID>
02F85B6500000001

> <PUBCHEM_MMFF94_ENERGY>
105.0053

> <PUBCHEM_FEATURE_SELFOVERLAP>
61.178

> <PUBCHEM_SHAPE_FINGERPRINT>
10042902 136 18337393747256075760
10622 236 18335983142588874795
10677394 325 17823154457402046086
11069576 57 18120090847488199469
11387372 6 18057885727679992423
11399510 152 17560221609541232138
11497681 19 18411136948844466084
117089 54 18342741827269403827
11763715 3 18269290087079381465
12633046 712 18129931287742335632
13009979 54 18409174302913684297
131258 38 17767110270041827487
131258 43 18338805614765598116
13383661 66 18410001135399392874
13383668 262 17988097685536552452
13782708 43 18272930484563904826
13911987 19 15720255889105586256
14143925 63 18343023302473163158
14415361 349 18264765472223867191
14856354 85 17915182304540605600
15705408 1 17603596235445972980
15803439 3 16668273789865973132
15911013 46 18269832025762003163
16989378 47 18260842522046861094
17492 89 18342737442149258969
19303781 99 18260839193357666107
19304152 47 12031786963924870227
19319366 153 17690563408951310493
20587220 46 17980483678435130531
20775438 99 17968666037855635786
208703 8 18341323466017509555
21796203 349 15841544198424551034
2838139 119 10954044580010039602
4017518 198 17760929541994820349
44880168 125 18120933893549330338
46194498 28 17170094083869861175
474113 269 17988628741131872751
57527358 35 18273214192618252592
6058803 2 18266484112062491153
6691757 9 17986960640068939209
7970288 3 18126560352848298515

> <PUBCHEM_SHAPE_MULTIPOLES>
689.51
19.32
6.56
2.38
3.17
4.13
1.09
37.39
2.16
-3.58
2.4
0.57
-2.28
-2.54

> <PUBCHEM_SHAPE_SELFOVERLAP>
1518.463

> <PUBCHEM_SHAPE_VOLUME>
371.1

> <PUBCHEM_COORDINATE_TYPE>
2
5
10

$$$$
