44460786
  -OEChem-10062121583D

 70 73  0     1  0  0  0  0  0999 V2000
   -1.8169   -2.2557    0.5492 O   0  0  0  0  0  0  0  0  0  0  0  0
    0.2293   -0.7134   -0.6536 O   0  0  0  0  0  0  0  0  0  0  0  0
    2.7452   -1.3293    0.3308 O   0  0  0  0  0  0  0  0  0  0  0  0
    2.0338   -3.1290    2.3993 O   0  0  0  0  0  0  0  0  0  0  0  0
   -2.6779   -4.7302    1.0757 O   0  0  0  0  0  0  0  0  0  0  0  0
   -2.1088   -5.0973   -1.1008 O   0  0  0  0  0  0  0  0  0  0  0  0
   -2.9535   -2.3724   -1.4492 O   0  0  0  0  0  0  0  0  0  0  0  0
    0.0504   -0.1977   -2.8900 O   0  0  0  0  0  0  0  0  0  0  0  0
    4.1062   -2.2358   -1.2893 O   0  0  0  0  0  0  0  0  0  0  0  0
   -3.6898    1.3912    3.1474 O   0  0  0  0  0  0  0  0  0  0  0  0
   -6.2756    1.4628   -0.8832 O   0  0  0  0  0  0  0  0  0  0  0  0
   -0.4961    3.6083    1.6261 O   0  0  0  0  0  0  0  0  0  0  0  0
   -3.1342    3.8399   -2.3644 O   0  0  0  0  0  0  0  0  0  0  0  0
    4.5559    3.2119    1.0131 O   0  0  0  0  0  0  0  0  0  0  0  0
    8.3349    0.5220   -0.1786 O   0  0  0  0  0  0  0  0  0  0  0  0
   -5.7146    2.5050    1.6210 O   0  0  0  0  0  0  0  0  0  0  0  0
   -2.3772    4.9184    0.0719 O   0  0  0  0  0  0  0  0  0  0  0  0
    7.2934    2.9339    0.6986 O   0  0  0  0  0  0  0  0  0  0  0  0
   -1.0019   -3.3567    0.1636 C   0  0  1  0  0  0  0  0  0  0  0  0
    0.8170   -1.9740   -0.9774 C   0  0  2  0  0  0  0  0  0  0  0  0
   -0.2826   -3.0273   -1.1528 C   0  0  0  0  0  0  0  0  0  0  0  0
    1.7936   -2.3741    0.1320 C   0  0  2  0  0  0  0  0  0  0  0  0
   -0.0166   -3.7067    1.2808 C   0  0  0  0  0  0  0  0  0  0  0  0
    1.0764   -2.6483    1.4555 C   0  0  1  0  0  0  0  0  0  0  0  0
   -1.9700   -4.4833   -0.0534 C   0  0  0  0  0  0  0  0  0  0  0  0
   -2.7543   -1.8675   -0.3552 C   0  0  0  0  0  0  0  0  0  0  0  0
   -0.1059    0.0755   -1.7100 C   0  0  0  0  0  0  0  0  0  0  0  0
    3.8563   -1.3854   -0.4492 C   0  0  0  0  0  0  0  0  0  0  0  0
   -3.5338   -0.7156    0.1643 C   0  0  0  0  0  0  0  0  0  0  0  0
   -0.7040    1.3512   -1.2417 C   0  0  0  0  0  0  0  0  0  0  0  0
    4.7622   -0.2486   -0.1465 C   0  0  0  0  0  0  0  0  0  0  0  0
   -4.5520   -0.1564   -0.6078 C   0  0  0  0  0  0  0  0  0  0  0  0
   -3.2479   -0.1930    1.4255 C   0  0  0  0  0  0  0  0  0  0  0  0
   -1.6501    2.0089   -2.0277 C   0  0  0  0  0  0  0  0  0  0  0  0
   -0.3196    1.8917   -0.0146 C   0  0  0  0  0  0  0  0  0  0  0  0
    6.1404   -0.3926   -0.3048 C   0  0  0  0  0  0  0  0  0  0  0  0
    4.2340    0.9644    0.2959 C   0  0  0  0  0  0  0  0  0  0  0  0
   -3.9801    0.8889    1.9147 C   0  0  0  0  0  0  0  0  0  0  0  0
   -5.2843    0.9253   -0.1186 C   0  0  0  0  0  0  0  0  0  0  0  0
   -0.8812    3.0900    0.4264 C   0  0  0  0  0  0  0  0  0  0  0  0
   -2.2119    3.2071   -1.5867 C   0  0  0  0  0  0  0  0  0  0  0  0
    5.0842    2.0331    0.5800 C   0  0  0  0  0  0  0  0  0  0  0  0
    6.9906    0.6761   -0.0207 C   0  0  0  0  0  0  0  0  0  0  0  0
   -4.9982    1.4480    1.1425 C   0  0  0  0  0  0  0  0  0  0  0  0
   -1.8273    3.7476   -0.3596 C   0  0  0  0  0  0  0  0  0  0  0  0
    6.4624    1.8889    0.4218 C   0  0  0  0  0  0  0  0  0  0  0  0
    1.3904   -1.8862   -1.9091 H   0  0  0  0  0  0  0  0  0  0  0  0
   -0.9201   -2.7192   -1.9811 H   0  0  0  0  0  0  0  0  0  0  0  0
    0.2086   -3.9446   -1.5102 H   0  0  0  0  0  0  0  0  0  0  0  0
    2.3151   -3.2993   -0.1518 H   0  0  0  0  0  0  0  0  0  0  0  0
    0.4478   -4.6834    1.0870 H   0  0  0  0  0  0  0  0  0  0  0  0
   -0.5390   -3.8148    2.2407 H   0  0  0  0  0  0  0  0  0  0  0  0
    0.6610   -1.7194    1.8640 H   0  0  0  0  0  0  0  0  0  0  0  0
    1.5638   -3.2926    3.2348 H   0  0  0  0  0  0  0  0  0  0  0  0
   -3.3182   -5.4633    0.9538 H   0  0  0  0  0  0  0  0  0  0  0  0
   -4.7786   -0.5585   -1.5924 H   0  0  0  0  0  0  0  0  0  0  0  0
   -2.4593   -0.6059    2.0490 H   0  0  0  0  0  0  0  0  0  0  0  0
   -1.9545    1.5866   -2.9825 H   0  0  0  0  0  0  0  0  0  0  0  0
    0.4248    1.3953    0.6035 H   0  0  0  0  0  0  0  0  0  0  0  0
    6.5543   -1.3384   -0.6467 H   0  0  0  0  0  0  0  0  0  0  0  0
    3.1607    1.0951    0.4117 H   0  0  0  0  0  0  0  0  0  0  0  0
   -2.9550    0.8843    3.5333 H   0  0  0  0  0  0  0  0  0  0  0  0
   -6.3283    0.9757   -1.7233 H   0  0  0  0  0  0  0  0  0  0  0  0
    0.1633    3.0185    2.0301 H   0  0  0  0  0  0  0  0  0  0  0  0
   -3.2788    3.3189   -3.1729 H   0  0  0  0  0  0  0  0  0  0  0  0
    3.5882    3.1274    1.0630 H   0  0  0  0  0  0  0  0  0  0  0  0
    8.5165   -0.3810   -0.4912 H   0  0  0  0  0  0  0  0  0  0  0  0
   -6.3727    2.7583    0.9506 H   0  0  0  0  0  0  0  0  0  0  0  0
   -3.0114    5.2253   -0.5992 H   0  0  0  0  0  0  0  0  0  0  0  0
    8.2092    2.6505    0.5314 H   0  0  0  0  0  0  0  0  0  0  0  0
  1 19  1  0  0  0  0
  1 26  1  0  0  0  0
  2 20  1  0  0  0  0
  2 27  1  0  0  0  0
  3 22  1  0  0  0  0
  3 28  1  0  0  0  0
  4 24  1  0  0  0  0
  4 54  1  0  0  0  0
  5 25  1  0  0  0  0
  5 55  1  0  0  0  0
  6 25  2  0  0  0  0
  7 26  2  0  0  0  0
  8 27  2  0  0  0  0
  9 28  2  0  0  0  0
 10 38  1  0  0  0  0
 10 62  1  0  0  0  0
 11 39  1  0  0  0  0
 11 63  1  0  0  0  0
 12 40  1  0  0  0  0
 12 64  1  0  0  0  0
 13 41  1  0  0  0  0
 13 65  1  0  0  0  0
 14 42  1  0  0  0  0
 14 66  1  0  0  0  0
 15 43  1  0  0  0  0
 15 67  1  0  0  0  0
 16 44  1  0  0  0  0
 16 68  1  0  0  0  0
 17 45  1  0  0  0  0
 17 69  1  0  0  0  0
 18 46  1  0  0  0  0
 18 70  1  0  0  0  0
 19 21  1  0  0  0  0
 19 23  1  0  0  0  0
 19 25  1  0  0  0  0
 20 21  1  0  0  0  0
 20 22  1  0  0  0  0
 20 47  1  0  0  0  0
 21 48  1  0  0  0  0
 21 49  1  0  0  0  0
 22 24  1  0  0  0  0
 22 50  1  0  0  0  0
 23 24  1  0  0  0  0
 23 51  1  0  0  0  0
 23 52  1  0  0  0  0
 24 53  1  0  0  0  0
 26 29  1  0  0  0  0
 27 30  1  0  0  0  0
 28 31  1  0  0  0  0
 29 32  2  0  0  0  0
 29 33  1  0  0  0  0
 30 34  2  0  0  0  0
 30 35  1  0  0  0  0
 31 36  2  0  0  0  0
 31 37  1  0  0  0  0
 32 39  1  0  0  0  0
 32 56  1  0  0  0  0
 33 38  2  0  0  0  0
 33 57  1  0  0  0  0
 34 41  1  0  0  0  0
 34 58  1  0  0  0  0
 35 40  2  0  0  0  0
 35 59  1  0  0  0  0
 36 43  1  0  0  0  0
 36 60  1  0  0  0  0
 37 42  2  0  0  0  0
 37 61  1  0  0  0  0
 38 44  1  0  0  0  0
 39 44  2  0  0  0  0
 40 45  1  0  0  0  0
 41 45  2  0  0  0  0
 42 46  1  0  0  0  0
 43 46  2  0  0  0  0
M  END
> <PUBCHEM_COMPOUND_CID>
44460786

> <PUBCHEM_CONFORMER_RMSD>
1.2

> <PUBCHEM_CONFORMER_DIVERSEORDER>
1
10
39
8
3
7
29
19
28
34
13
36
26
40
37
15
21
9
24
35
25
33
12
32
22
27
30
17
23
16
6
42
20
41
38
11
18
4
5
14
31
2

> <PUBCHEM_MMFF94_PARTIAL_CHARGES>
61
1 -0.43
10 -0.53
11 -0.53
12 -0.53
13 -0.53
14 -0.53
15 -0.53
16 -0.53
17 -0.53
18 -0.53
19 0.34
2 -0.43
20 0.28
22 0.28
24 0.28
25 0.66
26 0.63
27 0.63
28 0.63
29 0.09
3 -0.43
30 0.09
31 0.09
32 -0.15
33 -0.15
34 -0.15
35 -0.15
36 -0.15
37 -0.15
38 0.08
39 0.08
4 -0.68
40 0.08
41 0.08
42 0.08
43 0.08
44 0.08
45 0.08
46 0.08
5 -0.65
54 0.4
55 0.5
56 0.15
57 0.15
58 0.15
59 0.15
6 -0.57
60 0.15
61 0.15
62 0.45
63 0.45
64 0.45
65 0.45
66 0.45
67 0.45
68 0.45
69 0.45
7 -0.57
70 0.45
8 -0.57
9 -0.57

> <PUBCHEM_EFFECTIVE_ROTOR_COUNT>
11.2

> <PUBCHEM_PHARMACOPHORE_FEATURES>
21
1 10 donor
1 11 donor
1 12 donor
1 13 donor
1 14 donor
1 15 donor
1 16 donor
1 17 donor
1 18 donor
1 4 acceptor
1 4 donor
1 5 acceptor
1 6 acceptor
1 7 acceptor
1 8 acceptor
1 9 acceptor
3 5 6 25 anion
6 19 20 21 22 23 24 rings
6 29 32 33 38 39 44 rings
6 30 34 35 40 41 45 rings
6 31 36 37 42 43 46 rings

> <PUBCHEM_HEAVY_ATOM_COUNT>
46

> <PUBCHEM_ATOM_DEF_STEREO_COUNT>
4

> <PUBCHEM_ATOM_UDEF_STEREO_COUNT>
0

> <PUBCHEM_BOND_DEF_STEREO_COUNT>
0

> <PUBCHEM_BOND_UDEF_STEREO_COUNT>
0

> <PUBCHEM_ISOTOPIC_ATOM_COUNT>
0

> <PUBCHEM_COMPONENT_COUNT>
1

> <PUBCHEM_CACTVS_TAUTO_COUNT>
1001

> <PUBCHEM_CONFORMER_ID>
02A66AF200000001

> <PUBCHEM_MMFF94_ENERGY>
133.5934

> <PUBCHEM_FEATURE_SELFOVERLAP>
106.673

> <PUBCHEM_SHAPE_FINGERPRINT>
10006869 2 18262787454863049614
10032420 55 17703220716126971993
10290309 65 18265614286436281646
10305334 12 18341333387280511556
10816530 23 17832704574255030529
12422481 6 17821734939664387916
12677640 9 18198910395635662707
12788726 201 18262222417993287922
14004853 49 18118427080242621805
14394314 77 18410858742296202441
14840074 17 18261122833171355873
15361156 5 18190471631192300302
16112460 7 18342745070190401152
18393751 57 18335991865841968323
20764821 26 17907547295580616249
392239 28 18410011009781855332
4144715 1 18267033928469852650
469060 322 17313375790481972566

> <PUBCHEM_SHAPE_MULTIPOLES>
841.01
14.39
6.59
1.98
25.63
2.35
-0.12
-10.85
-2.96
-4.36
-0.31
-1.94
-0.48
0.6

> <PUBCHEM_SHAPE_SELFOVERLAP>
1855.168

> <PUBCHEM_SHAPE_VOLUME>
445.3

> <PUBCHEM_COORDINATE_TYPE>
2
5
10

$$$$
