23647264
  -OEChem-10062121573D

 40 43  0     0  0  0  0  0  0999 V2000
   -5.5524   -1.7489    0.3733 O   0  0  0  0  0  0  0  0  0  0  0  0
   -4.6262    0.1470    1.2185 O   0  0  0  0  0  0  0  0  0  0  0  0
    1.9616    2.4739    0.1201 N   0  0  0  0  0  0  0  0  0  0  0  0
    2.6913   -2.3539    0.8492 N   0  0  0  0  0  0  0  0  0  0  0  0
   -2.4551    0.8716   -0.3567 N   0  0  0  0  0  0  0  0  0  0  0  0
    3.7166   -3.1931    0.6274 N   0  0  0  0  0  0  0  0  0  0  0  0
   -0.2200    1.6576   -0.1176 N   0  0  0  0  0  0  0  0  0  0  0  0
    0.2020    4.0189    0.1128 N   0  0  0  0  0  0  0  0  0  0  0  0
    2.9373   -1.0582    0.4826 C   0  0  0  0  0  0  0  0  0  0  0  0
    4.2338   -1.0598   -0.0197 C   0  0  0  0  0  0  0  0  0  0  0  0
    2.7170    1.2798    0.0787 C   0  0  0  0  0  0  0  0  0  0  0  0
    2.1474    0.0917    0.5482 C   0  0  0  0  0  0  0  0  0  0  0  0
    4.7920    0.1415   -0.4876 C   0  0  0  0  0  0  0  0  0  0  0  0
    4.0166    1.3064   -0.4308 C   0  0  0  0  0  0  0  0  0  0  0  0
   -2.2842   -0.5186   -0.4589 C   0  0  0  0  0  0  0  0  0  0  0  0
    4.6532   -2.4023    0.0987 C   0  0  0  0  0  0  0  0  0  0  0  0
    0.5813    2.7291    0.0342 C   0  0  0  0  0  0  0  0  0  0  0  0
   -1.5373    1.9384   -0.1963 C   0  0  0  0  0  0  0  0  0  0  0  0
   -3.2690   -1.3965   -0.0059 C   0  0  0  0  0  0  0  0  0  0  0  0
   -1.1103   -1.0182   -1.0231 C   0  0  0  0  0  0  0  0  0  0  0  0
   -3.0797   -2.7741   -0.1172 C   0  0  0  0  0  0  0  0  0  0  0  0
   -2.0541    3.2162   -0.1293 C   0  0  0  0  0  0  0  0  0  0  0  0
   -0.9213   -2.3958   -1.1343 C   0  0  0  0  0  0  0  0  0  0  0  0
   -1.9059   -3.2736   -0.6814 C   0  0  0  0  0  0  0  0  0  0  0  0
   -1.1281    4.2273    0.0270 C   0  0  0  0  0  0  0  0  0  0  0  0
   -4.5064   -0.9065    0.5881 C   0  0  0  0  0  0  0  0  0  0  0  0
    1.1630    0.0363    0.9949 H   0  0  0  0  0  0  0  0  0  0  0  0
    5.8013    0.1743   -0.8862 H   0  0  0  0  0  0  0  0  0  0  0  0
    4.4459    2.2378   -0.7937 H   0  0  0  0  0  0  0  0  0  0  0  0
    2.5193    3.3224    0.0982 H   0  0  0  0  0  0  0  0  0  0  0  0
    1.8439   -2.7312    1.2548 H   0  0  0  0  0  0  0  0  0  0  0  0
    5.6035   -2.8358   -0.1790 H   0  0  0  0  0  0  0  0  0  0  0  0
   -3.4129    1.1535   -0.1689 H   0  0  0  0  0  0  0  0  0  0  0  0
   -0.3391   -0.3736   -1.4312 H   0  0  0  0  0  0  0  0  0  0  0  0
   -3.8212   -3.4850    0.2379 H   0  0  0  0  0  0  0  0  0  0  0  0
   -3.1136    3.4307   -0.1944 H   0  0  0  0  0  0  0  0  0  0  0  0
   -0.0112   -2.7849   -1.5816 H   0  0  0  0  0  0  0  0  0  0  0  0
   -1.7576   -4.3461   -0.7671 H   0  0  0  0  0  0  0  0  0  0  0  0
   -1.4396    5.2645    0.0894 H   0  0  0  0  0  0  0  0  0  0  0  0
   -6.3812   -1.4121    0.7758 H   0  0  0  0  0  0  0  0  0  0  0  0
  1 26  1  0  0  0  0
  1 40  1  0  0  0  0
  2 26  2  0  0  0  0
  3 11  1  0  0  0  0
  3 17  1  0  0  0  0
  3 30  1  0  0  0  0
  4  6  1  0  0  0  0
  4  9  1  0  0  0  0
  4 31  1  0  0  0  0
  5 15  1  0  0  0  0
  5 18  1  0  0  0  0
  5 33  1  0  0  0  0
  6 16  2  0  0  0  0
  7 17  1  0  0  0  0
  7 18  2  0  0  0  0
  8 17  2  0  0  0  0
  8 25  1  0  0  0  0
  9 10  2  0  0  0  0
  9 12  1  0  0  0  0
 10 13  1  0  0  0  0
 10 16  1  0  0  0  0
 11 12  2  0  0  0  0
 11 14  1  0  0  0  0
 12 27  1  0  0  0  0
 13 14  2  0  0  0  0
 13 28  1  0  0  0  0
 14 29  1  0  0  0  0
 15 19  1  0  0  0  0
 15 20  2  0  0  0  0
 16 32  1  0  0  0  0
 18 22  1  0  0  0  0
 19 21  2  0  0  0  0
 19 26  1  0  0  0  0
 20 23  1  0  0  0  0
 20 34  1  0  0  0  0
 21 24  1  0  0  0  0
 21 35  1  0  0  0  0
 22 25  2  0  0  0  0
 22 36  1  0  0  0  0
 23 24  2  0  0  0  0
 23 37  1  0  0  0  0
 24 38  1  0  0  0  0
 25 39  1  0  0  0  0
M  END
> <PUBCHEM_COMPOUND_CID>
23647264

> <PUBCHEM_CONFORMER_RMSD>
1

> <PUBCHEM_CONFORMER_DIVERSEORDER>
1
90
68
69
102
38
18
94
42
54
60
28
15
73
112
49
17
21
110
109
64
50
35
111
47
7
9
105
100
53
87
51
45
72
41
23
61
96
63
113
46
108
48
70
20
67
78
74
22
36
29
40
104
101
2
107
16
106
11
27
33
75
24
19
31
97
66
103
65
52
84
32
91
98
95
4
14
25
86
77
3
83
92
71
99
82
44
39
81
55
57
58
85
59
12
93
56
34
89
88
13
26
43
37
30
76
80
8
10
5
79
62
6

> <PUBCHEM_MMFF94_PARTIAL_CHARGES>
39
1 -0.65
11 0.1
12 -0.15
13 -0.15
14 -0.15
15 0.1
16 0.14
17 0.72
18 0.41
19 0.09
2 -0.57
20 -0.15
21 -0.15
22 -0.15
23 -0.15
24 -0.15
25 0.16
26 0.63
27 0.15
28 0.15
29 0.15
3 -0.6
30 0.4
31 0.27
32 0.15
33 0.4
34 0.15
35 0.15
36 0.15
37 0.15
38 0.15
39 0.15
4 0.3
40 0.5
5 -0.6
6 -0.71
7 -0.62
8 -0.62
9 -0.15

> <PUBCHEM_EFFECTIVE_ROTOR_COUNT>
5

> <PUBCHEM_PHARMACOPHORE_FEATURES>
12
1 1 acceptor
1 2 acceptor
1 3 donor
1 4 donor
1 5 donor
1 6 acceptor
3 1 2 26 anion
4 3 7 8 17 cation
5 4 6 9 10 16 rings
6 15 19 20 21 23 24 rings
6 7 8 17 18 22 25 rings
6 9 10 11 12 13 14 rings

> <PUBCHEM_HEAVY_ATOM_COUNT>
26

> <PUBCHEM_ATOM_DEF_STEREO_COUNT>
0

> <PUBCHEM_ATOM_UDEF_STEREO_COUNT>
0

> <PUBCHEM_BOND_DEF_STEREO_COUNT>
0

> <PUBCHEM_BOND_UDEF_STEREO_COUNT>
0

> <PUBCHEM_ISOTOPIC_ATOM_COUNT>
0

> <PUBCHEM_COMPONENT_COUNT>
1

> <PUBCHEM_CACTVS_TAUTO_COUNT>
31

> <PUBCHEM_CONFORMER_ID>
0168D42000000001

> <PUBCHEM_MMFF94_ENERGY>
92.8678

> <PUBCHEM_FEATURE_SELFOVERLAP>
61.045

> <PUBCHEM_SHAPE_FINGERPRINT>
10369192 42 16697770332881266816
10616163 171 18267303123754242508
11578080 2 17845352424171221416
12107183 9 18341626919085179233
12422481 6 18055653732561629713
12553582 1 18339349876914933164
12788726 201 18334010558340724650
13140716 1 17836359719845781337
13533116 47 17766558328785826391
13631057 29 18411984655140532036
13726171 33 18056507009615310188
13785724 45 18340503222148613591
138480 1 15457337030660207260
14178342 30 17480002538195656833
14866123 147 18124031231117009633
15042514 8 18266460906026448081
16110190 28 18342739645825865738
17492 89 18264769870534154802
19319366 153 18115028636130591430
19591789 44 18411136901098724385
19930381 70 17760924438945782090
20291156 8 18410571820735990308
20775438 99 17190885874526515999
314173 41 18267308805653330756
352729 6 17980754944100024012
3737641 26 18409738386780000194
44880168 125 17418097568615583662
463206 1 18263647444965593890
5309563 4 18266742578487232438
56633871 153 18343305885751304543
7097593 13 18124877017361480541
79837 15 17764872394422522704

> <PUBCHEM_SHAPE_MULTIPOLES>
493.44
9.75
5.29
0.86
1.16
3.4
-0.02
-6.99
1.59
-0.95
-0.11
-0.22
-0.32
-0.69

> <PUBCHEM_SHAPE_SELFOVERLAP>
1099.446

> <PUBCHEM_SHAPE_VOLUME>
259.8

> <PUBCHEM_COORDINATE_TYPE>
2
5
10

$$$$
