49830568
  -OEChem-10052115183D

 29 31  0     0  0  0  0  0  0999 V2000
   -0.9219   -2.7798    0.0056 O   0  0  0  0  0  0  0  0  0  0  0  0
    0.4613    1.3407    0.0039 N   0  0  0  0  0  0  0  0  0  0  0  0
    0.9960   -1.6415   -0.0004 N   0  0  0  0  0  0  0  0  0  0  0  0
   -0.8526    0.8646    0.0024 C   0  0  0  0  0  0  0  0  0  0  0  0
   -1.2544   -0.4716    0.0010 C   0  0  0  0  0  0  0  0  0  0  0  0
    1.7190    0.7384    0.0015 C   0  0  0  0  0  0  0  0  0  0  0  0
    1.9631   -0.6289   -0.0014 C   0  0  0  0  0  0  0  0  0  0  0  0
   -2.6438   -0.7592   -0.0009 C   0  0  0  0  0  0  0  0  0  0  0  0
   -0.3765   -1.6688    0.0024 C   0  0  0  0  0  0  0  0  0  0  0  0
   -3.6135    0.2428   -0.0016 C   0  0  0  0  0  0  0  0  0  0  0  0
   -1.8608    1.8658    0.0015 C   0  0  0  0  0  0  0  0  0  0  0  0
   -3.2198    1.5655   -0.0003 C   0  0  0  0  0  0  0  0  0  0  0  0
    2.8359    1.6111    0.0014 C   0  0  0  0  0  0  0  0  0  0  0  0
    3.2983   -1.0934   -0.0041 C   0  0  0  0  0  0  0  0  0  0  0  0
    4.1491    1.1444   -0.0009 C   0  0  0  0  0  0  0  0  0  0  0  0
    4.3818   -0.2184   -0.0038 C   0  0  0  0  0  0  0  0  0  0  0  0
   -5.0612   -0.1116   -0.0063 C   0  0  0  0  0  0  0  0  0  0  0  0
    0.5132    2.3566    0.0069 H   0  0  0  0  0  0  0  0  0  0  0  0
   -2.9986   -1.7892   -0.0043 H   0  0  0  0  0  0  0  0  0  0  0  0
   -1.5767    2.9182    0.0019 H   0  0  0  0  0  0  0  0  0  0  0  0
    1.3918   -2.5801   -0.0012 H   0  0  0  0  0  0  0  0  0  0  0  0
   -3.9472    2.3718   -0.0028 H   0  0  0  0  0  0  0  0  0  0  0  0
    2.6798    2.6895    0.0034 H   0  0  0  0  0  0  0  0  0  0  0  0
    3.5085   -2.1623   -0.0062 H   0  0  0  0  0  0  0  0  0  0  0  0
    4.9785    1.8446   -0.0007 H   0  0  0  0  0  0  0  0  0  0  0  0
    5.3965   -0.6036   -0.0057 H   0  0  0  0  0  0  0  0  0  0  0  0
   -5.3740   -0.4028   -1.0141 H   0  0  0  0  0  0  0  0  0  0  0  0
   -5.2597   -0.9413    0.6806 H   0  0  0  0  0  0  0  0  0  0  0  0
   -5.6832    0.7298    0.3176 H   0  0  0  0  0  0  0  0  0  0  0  0
  1  9  2  0  0  0  0
  2  4  1  0  0  0  0
  2  6  1  0  0  0  0
  2 18  1  0  0  0  0
  3  7  1  0  0  0  0
  3  9  1  0  0  0  0
  3 21  1  0  0  0  0
  4  5  2  0  0  0  0
  4 11  1  0  0  0  0
  5  8  1  0  0  0  0
  5  9  1  0  0  0  0
  6  7  1  0  0  0  0
  6 13  2  0  0  0  0
  7 14  2  0  0  0  0
  8 10  2  0  0  0  0
  8 19  1  0  0  0  0
 10 12  1  0  0  0  0
 10 17  1  0  0  0  0
 11 12  2  0  0  0  0
 11 20  1  0  0  0  0
 12 22  1  0  0  0  0
 13 15  1  0  0  0  0
 13 23  1  0  0  0  0
 14 16  1  0  0  0  0
 14 24  1  0  0  0  0
 15 16  2  0  0  0  0
 15 25  1  0  0  0  0
 16 26  1  0  0  0  0
 17 27  1  0  0  0  0
 17 28  1  0  0  0  0
 17 29  1  0  0  0  0
M  END
> <PUBCHEM_COMPOUND_CID>
49830568

> <PUBCHEM_CONFORMER_RMSD>
0.4

> <PUBCHEM_CONFORMER_DIVERSEORDER>
1

> <PUBCHEM_MMFF94_PARTIAL_CHARGES>
26
1 -0.57
10 -0.14
11 -0.15
12 -0.15
13 -0.15
14 -0.15
15 -0.15
16 -0.15
17 0.14
18 0.4
19 0.15
2 -0.6
20 0.15
21 0.37
22 0.15
23 0.15
24 0.15
25 0.15
26 0.15
3 -0.55
4 0.1
5 0.09
6 0.1
7 0.12
8 -0.15
9 0.54

> <PUBCHEM_EFFECTIVE_ROTOR_COUNT>
0.4

> <PUBCHEM_PHARMACOPHORE_FEATURES>
7
1 1 acceptor
1 2 cation
1 2 donor
1 3 donor
6 4 5 8 10 11 12 rings
6 6 7 13 14 15 16 rings
7 2 3 4 5 6 7 9 rings

> <PUBCHEM_HEAVY_ATOM_COUNT>
17

> <PUBCHEM_ATOM_DEF_STEREO_COUNT>
0

> <PUBCHEM_ATOM_UDEF_STEREO_COUNT>
0

> <PUBCHEM_BOND_DEF_STEREO_COUNT>
0

> <PUBCHEM_BOND_UDEF_STEREO_COUNT>
0

> <PUBCHEM_ISOTOPIC_ATOM_COUNT>
0

> <PUBCHEM_COMPONENT_COUNT>
1

> <PUBCHEM_CACTVS_TAUTO_COUNT>
7

> <PUBCHEM_CONFORMER_ID>
02F85AA800000001

> <PUBCHEM_MMFF94_ENERGY>
76.2403

> <PUBCHEM_FEATURE_SELFOVERLAP>
35.533

> <PUBCHEM_SHAPE_FINGERPRINT>
10411042 1 16393243583867101711
10608611 8 18340484564615286568
10616163 171 18267589181355907326
10967382 1 18410856555392314528
11132069 177 18413384349804427856
11471102 20 18410853257079009868
11578080 2 16771252876054639562
12251169 10 18408318904494532612
12592029 89 18335422326775524075
13140716 1 18194115454827109792
13221675 6 18410292514596431786
13380535 76 18412545413953575270
13583140 156 16805873069971665281
138480 1 17618221711005567239
13862211 1 18410849984530506871
14115302 16 18334866060049599980
14787075 74 18342736351638762043
15042514 8 18265055906597465203
15196674 1 18410855421484025125
15309172 13 18410864239336746681
15442244 35 18337951178340318338
15536298 74 18342739589859434966
15775835 57 18412829087831955752
16945 1 18338517572366770592
17802600 8 18410570673763561296
18186145 218 18341898428957040780
19591789 44 18338235964172539054
200 152 18202558471821111285
20510252 161 18272090461426813505
20645477 70 18340486673080258230
21267235 1 18410864243468371790
21524375 3 18411699872184318175
21652331 79 18409448089645337221
2334 1 18410573955166028704
23402539 116 18342448261963990543
23402655 69 18343016666478736157
23463225 33 18335420136553004180
23559900 14 18272087241002986608
2748010 2 18337395928645853005
2871803 45 18335978692891979893
335352 9 18410573959809084598
3545911 37 18412265060485490256
43471831 8 18263361400011896027
474 4 17241616194344669852
474229 33 18410855477841157711
4990 188 17989212520848003972
5104073 3 18410293566837195889
537710 114 18411704300321954604
54173680 148 18192996147568842483
6333272 397 18409167705532135130
69090 78 18412823603190445263
7364860 26 18124878949712161502
9709674 26 18341618139554951246

> <PUBCHEM_SHAPE_MULTIPOLES>
334.02
8.34
2.16
0.6
0.55
0.6
0
-1.51
-0.02
0.09
0
0
-0.02
0

> <PUBCHEM_SHAPE_SELFOVERLAP>
738.535

> <PUBCHEM_SHAPE_VOLUME>
176.6

> <PUBCHEM_COORDINATE_TYPE>
2
5
10

$$$$
