44370466
  -OEChem-10052115143D

 78 84  0     1  0  0  0  0  0999 V2000
  -10.9644    2.8704   -0.8184 Br  0  0  0  0  0  0  0  0  0  0  0  0
    4.0657    1.5589   -1.0191 O   0  0  0  0  0  0  0  0  0  0  0  0
    4.0571   -1.0495    1.5955 O   0  0  0  0  0  0  0  0  0  0  0  0
    6.4328    2.3468    0.4732 O   0  0  0  0  0  0  0  0  0  0  0  0
    6.0872   -1.2142   -0.2404 O   0  0  0  0  0  0  0  0  0  0  0  0
    7.0526    2.5068   -2.8313 O   0  0  0  0  0  0  0  0  0  0  0  0
   -3.1482    1.2885    1.4144 O   0  0  0  0  0  0  0  0  0  0  0  0
   -3.0240   -3.2846    0.7001 O   0  0  0  0  0  0  0  0  0  0  0  0
   -7.8460    0.4149   -1.2613 O   0  0  0  0  0  0  0  0  0  0  0  0
   -7.9011    2.6981   -0.9619 O   0  0  0  0  0  0  0  0  0  0  0  0
    2.1399    0.7098    0.0812 N   0  0  0  0  0  0  0  0  0  0  0  0
    2.2171   -2.0381   -0.3484 N   0  0  0  0  0  0  0  0  0  0  0  0
   -3.4910   -1.0237    1.1437 N   0  0  0  0  0  0  0  0  0  0  0  0
    3.5783    0.4187   -0.2993 C   0  0  2  0  0  0  0  0  0  0  0  0
    4.4645    0.1417    0.9286 C   0  0  2  0  0  0  0  0  0  0  0  0
    5.9343   -0.0124    0.5161 C   0  0  2  0  0  0  0  0  0  0  0  0
    1.0278   -0.0447    0.2299 C   0  0  0  0  0  0  0  0  0  0  0  0
    6.3795    1.1759   -0.3384 C   0  0  1  0  0  0  0  0  0  0  0  0
    5.4028    1.3993   -1.5046 C   0  0  2  0  0  0  0  0  0  0  0  0
   -0.2401    0.5090    0.6108 C   0  0  0  0  0  0  0  0  0  0  0  0
    1.6441    1.9686    0.3860 C   0  0  0  0  0  0  0  0  0  0  0  0
    1.0667   -1.4270    0.0140 C   0  0  0  0  0  0  0  0  0  0  0  0
    0.2459    1.8936    0.7032 C   0  0  0  0  0  0  0  0  0  0  0  0
   -1.4226   -0.2059    0.7821 C   0  0  0  0  0  0  0  0  0  0  0  0
   -0.1656   -2.1395    0.1977 C   0  0  0  0  0  0  0  0  0  0  0  0
   -1.3843   -1.5767    0.5683 C   0  0  0  0  0  0  0  0  0  0  0  0
    5.7426    2.6473   -2.3119 C   0  0  0  0  0  0  0  0  0  0  0  0
    0.3968   -3.4577   -0.1313 C   0  0  0  0  0  0  0  0  0  0  0  0
   -2.7778    0.1599    1.1557 C   0  0  0  0  0  0  0  0  0  0  0  0
   -2.7145   -2.1132    0.8007 C   0  0  0  0  0  0  0  0  0  0  0  0
    1.7941   -3.3552   -0.4454 C   0  0  0  0  0  0  0  0  0  0  0  0
    2.3417    3.1861    0.4040 C   0  0  0  0  0  0  0  0  0  0  0  0
   -0.4060    3.1056    1.0364 C   0  0  0  0  0  0  0  0  0  0  0  0
   -4.9033   -1.1123    1.4576 C   0  0  0  0  0  0  0  0  0  0  0  0
    1.6517    4.3516    0.7395 C   0  0  0  0  0  0  0  0  0  0  0  0
    0.2989    4.3140    1.0509 C   0  0  0  0  0  0  0  0  0  0  0  0
   -0.1838   -4.7479   -0.1866 C   0  0  0  0  0  0  0  0  0  0  0  0
    2.5576   -4.4799   -0.7934 C   0  0  0  0  0  0  0  0  0  0  0  0
   -5.7880   -0.9686    0.2233 C   0  0  0  0  0  0  0  0  0  0  0  0
    7.6272    2.3918    1.2394 C   0  0  0  0  0  0  0  0  0  0  0  0
    0.5867   -5.8626   -0.5343 C   0  0  0  0  0  0  0  0  0  0  0  0
    1.9363   -5.7286   -0.8329 C   0  0  0  0  0  0  0  0  0  0  0  0
   -5.5768    0.3634   -0.4969 C   0  0  0  0  0  0  0  0  0  0  0  0
   -6.4978    0.5007   -1.7017 C   0  0  0  0  0  0  0  0  0  0  0  0
   -8.4423    1.6027   -0.9156 C   0  0  0  0  0  0  0  0  0  0  0  0
   -9.8522    1.3182   -0.4791 C   0  0  0  0  0  0  0  0  0  0  0  0
    3.5606   -0.3337   -1.0802 H   0  0  0  0  0  0  0  0  0  0  0  0
    4.3751    0.9725    1.6393 H   0  0  0  0  0  0  0  0  0  0  0  0
    6.5425   -0.1366    1.4168 H   0  0  0  0  0  0  0  0  0  0  0  0
    7.3702    0.9730   -0.7671 H   0  0  0  0  0  0  0  0  0  0  0  0
    5.4343    0.5313   -2.1766 H   0  0  0  0  0  0  0  0  0  0  0  0
    5.6841    3.5556   -1.7024 H   0  0  0  0  0  0  0  0  0  0  0  0
    5.0381    2.7661   -3.1424 H   0  0  0  0  0  0  0  0  0  0  0  0
    3.1810   -1.7763   -0.3359 H   0  0  0  0  0  0  0  0  0  0  0  0
    3.4058    3.2708    0.2239 H   0  0  0  0  0  0  0  0  0  0  0  0
   -1.4620    3.1171    1.2862 H   0  0  0  0  0  0  0  0  0  0  0  0
    4.6361   -1.1669    2.3678 H   0  0  0  0  0  0  0  0  0  0  0  0
    7.0291   -1.2999   -0.4661 H   0  0  0  0  0  0  0  0  0  0  0  0
   -5.1503   -0.3288    2.1830 H   0  0  0  0  0  0  0  0  0  0  0  0
   -5.0951   -2.0845    1.9255 H   0  0  0  0  0  0  0  0  0  0  0  0
    2.1837    5.2990    0.7691 H   0  0  0  0  0  0  0  0  0  0  0  0
   -0.2198    5.2327    1.3124 H   0  0  0  0  0  0  0  0  0  0  0  0
   -1.2352   -4.8930    0.0398 H   0  0  0  0  0  0  0  0  0  0  0  0
    3.6137   -4.3851   -1.0281 H   0  0  0  0  0  0  0  0  0  0  0  0
   -6.8332   -1.0707    0.5376 H   0  0  0  0  0  0  0  0  0  0  0  0
   -5.5806   -1.7912   -0.4724 H   0  0  0  0  0  0  0  0  0  0  0  0
    7.6457    3.3453    1.7753 H   0  0  0  0  0  0  0  0  0  0  0  0
    8.5096    2.3515    0.5929 H   0  0  0  0  0  0  0  0  0  0  0  0
    7.6640    1.5924    1.9829 H   0  0  0  0  0  0  0  0  0  0  0  0
    7.2437    3.3088   -3.3468 H   0  0  0  0  0  0  0  0  0  0  0  0
    0.1214   -6.8441   -0.5708 H   0  0  0  0  0  0  0  0  0  0  0  0
    2.5177   -6.6070   -1.1009 H   0  0  0  0  0  0  0  0  0  0  0  0
   -4.5473    0.4495   -0.8582 H   0  0  0  0  0  0  0  0  0  0  0  0
   -5.7597    1.1849    0.2054 H   0  0  0  0  0  0  0  0  0  0  0  0
   -6.3273   -0.3201   -2.4068 H   0  0  0  0  0  0  0  0  0  0  0  0
   -6.3029    1.4319   -2.2462 H   0  0  0  0  0  0  0  0  0  0  0  0
   -9.8844    1.1000    0.5897 H   0  0  0  0  0  0  0  0  0  0  0  0
  -10.2885    0.5034   -1.0617 H   0  0  0  0  0  0  0  0  0  0  0  0
  1 46  1  0  0  0  0
  2 14  1  0  0  0  0
  2 19  1  0  0  0  0
  3 15  1  0  0  0  0
  3 57  1  0  0  0  0
  4 18  1  0  0  0  0
  4 40  1  0  0  0  0
  5 16  1  0  0  0  0
  5 58  1  0  0  0  0
  6 27  1  0  0  0  0
  6 70  1  0  0  0  0
  7 29  2  0  0  0  0
  8 30  2  0  0  0  0
  9 44  1  0  0  0  0
  9 45  1  0  0  0  0
 10 45  2  0  0  0  0
 11 14  1  0  0  0  0
 11 17  1  0  0  0  0
 11 21  1  0  0  0  0
 12 22  1  0  0  0  0
 12 31  1  0  0  0  0
 12 54  1  0  0  0  0
 13 29  1  0  0  0  0
 13 30  1  0  0  0  0
 13 34  1  0  0  0  0
 14 15  1  0  0  0  0
 14 47  1  0  0  0  0
 15 16  1  0  0  0  0
 15 48  1  0  0  0  0
 16 18  1  0  0  0  0
 16 49  1  0  0  0  0
 17 20  1  0  0  0  0
 17 22  2  0  0  0  0
 18 19  1  0  0  0  0
 18 50  1  0  0  0  0
 19 27  1  0  0  0  0
 19 51  1  0  0  0  0
 20 23  1  0  0  0  0
 20 24  2  0  0  0  0
 21 23  1  0  0  0  0
 21 32  2  0  0  0  0
 22 25  1  0  0  0  0
 23 33  2  0  0  0  0
 24 26  1  0  0  0  0
 24 29  1  0  0  0  0
 25 26  2  0  0  0  0
 25 28  1  0  0  0  0
 26 30  1  0  0  0  0
 27 52  1  0  0  0  0
 27 53  1  0  0  0  0
 28 31  1  0  0  0  0
 28 37  2  0  0  0  0
 31 38  2  0  0  0  0
 32 35  1  0  0  0  0
 32 55  1  0  0  0  0
 33 36  1  0  0  0  0
 33 56  1  0  0  0  0
 34 39  1  0  0  0  0
 34 59  1  0  0  0  0
 34 60  1  0  0  0  0
 35 36  2  0  0  0  0
 35 61  1  0  0  0  0
 36 62  1  0  0  0  0
 37 41  1  0  0  0  0
 37 63  1  0  0  0  0
 38 42  1  0  0  0  0
 38 64  1  0  0  0  0
 39 43  1  0  0  0  0
 39 65  1  0  0  0  0
 39 66  1  0  0  0  0
 40 67  1  0  0  0  0
 40 68  1  0  0  0  0
 40 69  1  0  0  0  0
 41 42  2  0  0  0  0
 41 71  1  0  0  0  0
 42 72  1  0  0  0  0
 43 44  1  0  0  0  0
 43 73  1  0  0  0  0
 43 74  1  0  0  0  0
 44 75  1  0  0  0  0
 44 76  1  0  0  0  0
 45 46  1  0  0  0  0
 46 77  1  0  0  0  0
 46 78  1  0  0  0  0
M  END
> <PUBCHEM_COMPOUND_CID>
44370466

> <PUBCHEM_CONFORMER_RMSD>
1.2

> <PUBCHEM_CONFORMER_DIVERSEORDER>
3
72
25
49
58
19
2
80
75
86
57
40
74
31
65
23
70
83
47
64
63
32
78
82
38
66
54
36
27
13
59
33
53
52
41
46
61
62
85
67
60
15
28
69
20
35
43
56
81
68
26
84
55
34
73
51
44
48
1
17
22
79
37
21
7
42
4
39
77
16
76
11
29
6
12
71
24
10
18
8
30
14
9
50
45
5

> <PUBCHEM_MMFF94_PARTIAL_CHARGES>
54
1 -0.23
10 -0.57
11 -0.04
12 -0.05
13 -0.42
14 0.54
15 0.28
16 0.28
17 -0.05
18 0.28
19 0.28
2 -0.56
20 -0.01
21 -0.15
22 -0.05
24 0.09
25 -0.01
26 0.09
27 0.28
29 0.54
3 -0.68
30 0.54
31 -0.15
32 -0.15
33 -0.15
34 0.3
35 -0.15
36 -0.15
37 -0.15
38 -0.15
4 -0.56
40 0.28
41 -0.15
42 -0.15
44 0.28
45 0.66
46 0.29
5 -0.68
54 0.27
55 0.15
56 0.15
57 0.4
58 0.4
6 -0.68
61 0.15
62 0.15
63 0.15
64 0.15
7 -0.57
70 0.4
71 0.15
72 0.15
8 -0.57
9 -0.43

> <PUBCHEM_EFFECTIVE_ROTOR_COUNT>
11.4

> <PUBCHEM_PHARMACOPHORE_FEATURES>
22
1 1 hydrophobe
1 10 acceptor
1 11 cation
1 12 cation
1 12 donor
1 2 acceptor
1 3 acceptor
1 3 donor
1 4 acceptor
1 5 acceptor
1 5 donor
1 6 acceptor
1 6 donor
1 7 acceptor
1 8 acceptor
5 11 17 20 21 23 rings
5 12 22 25 28 31 rings
5 13 24 26 29 30 rings
6 17 20 22 24 25 26 rings
6 2 14 15 16 18 19 rings
6 21 23 32 33 35 36 rings
6 28 31 37 38 41 42 rings

> <PUBCHEM_HEAVY_ATOM_COUNT>
46

> <PUBCHEM_ATOM_DEF_STEREO_COUNT>
0

> <PUBCHEM_ATOM_UDEF_STEREO_COUNT>
5

> <PUBCHEM_BOND_DEF_STEREO_COUNT>
0

> <PUBCHEM_BOND_UDEF_STEREO_COUNT>
0

> <PUBCHEM_ISOTOPIC_ATOM_COUNT>
0

> <PUBCHEM_COMPONENT_COUNT>
1

> <PUBCHEM_CACTVS_TAUTO_COUNT>
6

> <PUBCHEM_CONFORMER_ID>
02A50A2200000003

> <PUBCHEM_MMFF94_ENERGY>
162.8575

> <PUBCHEM_FEATURE_SELFOVERLAP>
112.138

> <PUBCHEM_SHAPE_FINGERPRINT>
10675989 125 18192716640067046091
10864689 126 18340211890458971640
10940486 97 17976830010228193940
1100329 8 18053390078670018170
11135609 187 18412259528699378171
11135926 11 18341060657284671979
11719270 70 18411978052963505890
13911987 19 18338528520259578852
13944108 23 18335700503724006605
14117953 113 18412546483812025166
14415360 78 18268700783069046021
14747282 540 18260548909234467029
14790565 3 18341065085538145120
15131766 46 16591978635708755060
15320294 125 18261095389216882994
15439362 3 18053656155593828681
15444296 9 17894624812464889503
15484559 13 18343582932310817446
15890870 6 18410294722541840630
19315958 150 18335702682005187733
21133410 38 17986971669333315619
22311459 1 18413107247685160777
23559900 14 18199468946693650025
3178227 256 18195548075491740123
3882209 13 17831843673498405699
4394409 98 18337394949625515820
4403749 210 18195805391298541866
9961470 85 17769929405144948064

> <PUBCHEM_SHAPE_MULTIPOLES>
884.83
23
7.01
1.52
56.04
8.49
-0.63
-26.19
-10.81
-5.27
-0.97
-1.02
-0.99
1.13

> <PUBCHEM_SHAPE_SELFOVERLAP>
1952.263

> <PUBCHEM_SHAPE_VOLUME>
483.8

> <PUBCHEM_COORDINATE_TYPE>
2
5
10

$$$$
