56955954
  -OEChem-10052120443D

 44 46  0     0  0  0  0  0  0999 V2000
   -3.9716   -2.4816    0.8690 Cl  0  0  0  0  0  0  0  0  0  0  0  0
   -2.8081   -1.0925   -1.8105 S   0  0  0  0  0  0  0  0  0  0  0  0
   -3.7444    0.7486    1.6107 F   0  0  0  0  0  0  0  0  0  0  0  0
   -2.2871    2.7515    2.7472 F   0  0  0  0  0  0  0  0  0  0  0  0
   -1.9494   -0.6000   -2.8786 O   0  0  0  0  0  0  0  0  0  0  0  0
   -3.7412   -2.1731   -2.0954 O   0  0  0  0  0  0  0  0  0  0  0  0
    5.0880    1.7658    0.2432 O   0  0  0  0  0  0  0  0  0  0  0  0
   -3.6570    0.2470   -1.1405 N   0  0  0  0  0  0  0  0  0  0  0  0
    2.2656   -0.2384    0.1319 N   0  0  0  0  0  0  0  0  0  0  0  0
    4.1224   -2.3390    0.2073 N   0  0  0  0  0  0  0  0  0  0  0  0
    5.8800   -0.7664   -0.0813 N   0  0  0  0  0  0  0  0  0  0  0  0
    3.0666    2.2081   -0.8030 N   0  0  0  0  0  0  0  0  0  0  0  0
   -1.7725   -1.5894   -0.4873 C   0  0  0  0  0  0  0  0  0  0  0  0
    0.4620   -1.7494    0.4173 C   0  0  0  0  0  0  0  0  0  0  0  0
   -0.4006   -1.3701   -0.6112 C   0  0  0  0  0  0  0  0  0  0  0  0
   -2.2818   -2.1880    0.6651 C   0  0  0  0  0  0  0  0  0  0  0  0
   -0.0475   -2.3478    1.5698 C   0  0  0  0  0  0  0  0  0  0  0  0
    1.8852   -1.5217    0.2896 C   0  0  0  0  0  0  0  0  0  0  0  0
   -1.4193   -2.5671    1.6938 C   0  0  0  0  0  0  0  0  0  0  0  0
   -2.8906    1.3026   -0.5350 C   0  0  0  0  0  0  0  0  0  0  0  0
   -2.9627    1.5192    0.8411 C   0  0  0  0  0  0  0  0  0  0  0  0
   -2.0740    2.1104   -1.3265 C   0  0  0  0  0  0  0  0  0  0  0  0
    2.7973   -2.5535    0.3267 C   0  0  0  0  0  0  0  0  0  0  0  0
    3.5909   -0.0240    0.0124 C   0  0  0  0  0  0  0  0  0  0  0  0
    4.5029   -1.0557    0.0494 C   0  0  0  0  0  0  0  0  0  0  0  0
   -2.2181    2.5436    1.4258 C   0  0  0  0  0  0  0  0  0  0  0  0
   -1.3297    3.1348   -0.7418 C   0  0  0  0  0  0  0  0  0  0  0  0
   -1.4018    3.3515    0.6344 C   0  0  0  0  0  0  0  0  0  0  0  0
    3.9801    1.3675   -0.1570 C   0  0  0  0  0  0  0  0  0  0  0  0
    3.3166    3.6070   -1.0666 C   0  0  0  0  0  0  0  0  0  0  0  0
    0.0150   -0.9052   -1.5016 H   0  0  0  0  0  0  0  0  0  0  0  0
   -4.5252    0.0160   -0.6392 H   0  0  0  0  0  0  0  0  0  0  0  0
    0.6074   -2.6458    2.3853 H   0  0  0  0  0  0  0  0  0  0  0  0
   -1.7999   -3.0333    2.5991 H   0  0  0  0  0  0  0  0  0  0  0  0
   -2.0183    1.9708   -2.4022 H   0  0  0  0  0  0  0  0  0  0  0  0
    2.5063   -3.5908    0.4484 H   0  0  0  0  0  0  0  0  0  0  0  0
   -0.6958    3.7658   -1.3580 H   0  0  0  0  0  0  0  0  0  0  0  0
   -0.8222    4.1491    1.0896 H   0  0  0  0  0  0  0  0  0  0  0  0
    6.5150   -1.5545   -0.0433 H   0  0  0  0  0  0  0  0  0  0  0  0
    6.1582    0.0327   -0.6372 H   0  0  0  0  0  0  0  0  0  0  0  0
    2.1689    1.8272   -1.0887 H   0  0  0  0  0  0  0  0  0  0  0  0
    2.8694    4.1920   -0.2593 H   0  0  0  0  0  0  0  0  0  0  0  0
    2.8423    3.8693   -2.0152 H   0  0  0  0  0  0  0  0  0  0  0  0
    4.3896    3.8069   -1.1162 H   0  0  0  0  0  0  0  0  0  0  0  0
  1 16  1  0  0  0  0
  2  5  2  0  0  0  0
  2  6  2  0  0  0  0
  2  8  1  0  0  0  0
  2 13  1  0  0  0  0
  3 21  1  0  0  0  0
  4 26  1  0  0  0  0
  7 29  2  0  0  0  0
  8 20  1  0  0  0  0
  8 32  1  0  0  0  0
  9 18  1  0  0  0  0
  9 24  2  0  0  0  0
 10 23  1  0  0  0  0
 10 25  2  0  0  0  0
 11 25  1  0  0  0  0
 11 39  1  0  0  0  0
 11 40  1  0  0  0  0
 12 29  1  0  0  0  0
 12 30  1  0  0  0  0
 12 41  1  0  0  0  0
 13 15  1  0  0  0  0
 13 16  2  0  0  0  0
 14 15  2  0  0  0  0
 14 17  1  0  0  0  0
 14 18  1  0  0  0  0
 15 31  1  0  0  0  0
 16 19  1  0  0  0  0
 17 19  2  0  0  0  0
 17 33  1  0  0  0  0
 18 23  2  0  0  0  0
 19 34  1  0  0  0  0
 20 21  2  0  0  0  0
 20 22  1  0  0  0  0
 21 26  1  0  0  0  0
 22 27  2  0  0  0  0
 22 35  1  0  0  0  0
 23 36  1  0  0  0  0
 24 25  1  0  0  0  0
 24 29  1  0  0  0  0
 26 28  2  0  0  0  0
 27 28  1  0  0  0  0
 27 37  1  0  0  0  0
 28 38  1  0  0  0  0
 30 42  1  0  0  0  0
 30 43  1  0  0  0  0
 30 44  1  0  0  0  0
M  END
> <PUBCHEM_COMPOUND_CID>
56955954

> <PUBCHEM_CONFORMER_RMSD>
1

> <PUBCHEM_CONFORMER_DIVERSEORDER>
1
29
96
183
102
66
81
159
119
127
217
150
18
118
108
49
234
88
68
157
160
193
204
110
141
26
179
77
9
147
232
130
230
191
185
203
208
222
198
202
48
239
241
101
55
83
197
236
142
216
218
156
235
69
184
152
115
170
90
196
212
99
195
109
31
4
155
53
124
231
199
243
148
75
87
86
187
103
104
63
162
37
171
94
27
168
95
158
225
82
105
97
166
38
117
205
23
47
120
201
224
136
112
144
73
22
41
85
7
60
15
74
114
178
25
233
40
211
138
52
228
200
19
6
240
51
164
186
169
137
100
98
106
153
107
206
133
71
207
188
237
209
34
113
45
126
30
62
161
210
21
50
128
54
139
135
125
154
174
35
78
123
143
175
146
24
16
180
3
215
76
165
223
238
89
93
121
5
214
190
43
194
10
189
61
219
36
56
132
33
32
172
14
131
129
79
111
91
58
177
28
220
20
64
173
181
72
145
67
176
44
11
122
46
242
213
163
149
192
13
59
12
57
17
227
134
229
8
70
2
84
80
167
92
151
182
140
42
226
221
116
65
39

> <PUBCHEM_MMFF94_PARTIAL_CHARGES>
40
1 -0.18
10 -0.62
11 -0.9
12 -0.73
13 -0.01
15 -0.15
16 0.18
17 -0.15
18 0.31
19 -0.15
2 1.45
20 0.2
21 0.19
22 -0.15
23 0.16
24 0.4
25 0.41
26 0.19
27 -0.15
28 -0.15
29 0.54
3 -0.19
30 0.3
31 0.15
32 0.42
33 0.15
34 0.15
35 0.15
36 0.15
37 0.15
38 0.15
39 0.4
4 -0.19
40 0.4
41 0.37
5 -0.65
6 -0.65
7 -0.57
8 -0.76
9 -0.62

> <PUBCHEM_EFFECTIVE_ROTOR_COUNT>
6

> <PUBCHEM_PHARMACOPHORE_FEATURES>
11
1 11 donor
1 12 donor
1 5 acceptor
1 6 acceptor
1 7 acceptor
1 8 donor
1 9 acceptor
3 10 11 25 cation
6 13 14 15 16 17 19 rings
6 20 21 22 26 27 28 rings
6 9 10 18 23 24 25 rings

> <PUBCHEM_HEAVY_ATOM_COUNT>
30

> <PUBCHEM_ATOM_DEF_STEREO_COUNT>
0

> <PUBCHEM_ATOM_UDEF_STEREO_COUNT>
0

> <PUBCHEM_BOND_DEF_STEREO_COUNT>
0

> <PUBCHEM_BOND_UDEF_STEREO_COUNT>
0

> <PUBCHEM_ISOTOPIC_ATOM_COUNT>
0

> <PUBCHEM_COMPONENT_COUNT>
1

> <PUBCHEM_CACTVS_TAUTO_COUNT>
7

> <PUBCHEM_CONFORMER_ID>
0365143200000001

> <PUBCHEM_MMFF94_ENERGY>
81.3816

> <PUBCHEM_FEATURE_SELFOVERLAP>
55.84

> <PUBCHEM_SHAPE_FINGERPRINT>
10670039 82 18190477120039458380
12156800 1 16384593093718701809
12539773 59 18201433679710097229
13122387 1 18192993716902241488
1361 2 17829314801397868901
14123250 116 18270680861713050153
14251751 93 18195241118331357322
14279260 333 18194961834822637830
14395042 70 15903817027638435833
14466204 15 18261947467499161674
14713325 29 17917426480560636711
19930381 70 17688593079412952354
20510252 161 18114741637425173955
20764821 26 18336276720794319600
20775438 99 16687058980371271591
21033648 29 17095792235949006062
21623110 236 18335989765302123953
21864079 5 18190452775362743418
23227448 37 18337112263473288983
23419403 2 17827631775940110047
25265897 201 17772208417659709718
3380486 145 17610357295364241651
392239 28 18262536805446475507
460360 51 17386837314966374002
469060 322 16588034532342931323
4742675 86 18337956804467849784
50150288 127 17341576068589862608
508706 21 18260539014088180276
57527573 199 13795786876067448179
57527585 103 17387146444699277714

> <PUBCHEM_SHAPE_MULTIPOLES>
566.04
9.41
4.7
1.87
11.68
2.75
-0.21
-0.13
-0.72
-0.5
0.99
-2.68
0.23
-1.42

> <PUBCHEM_SHAPE_SELFOVERLAP>
1212.897

> <PUBCHEM_SHAPE_VOLUME>
316

> <PUBCHEM_COORDINATE_TYPE>
2
5
10

$$$$
