49830276
  -OEChem-10052115183D

 39 42  0     0  0  0  0  0  0999 V2000
    3.8617   -1.3005   -0.8898 F   0  0  0  0  0  0  0  0  0  0  0  0
    6.5379   -0.7932   -0.8115 F   0  0  0  0  0  0  0  0  0  0  0  0
    1.1841    1.4957   -0.0177 O   0  0  0  0  0  0  0  0  0  0  0  0
   -3.4520   -2.9119    0.2219 N   0  0  0  0  0  0  0  0  0  0  0  0
   -1.0887   -3.3708    0.3069 N   0  0  0  0  0  0  0  0  0  0  0  0
    1.5747   -0.8160    0.1676 N   0  0  0  0  0  0  0  0  0  0  0  0
   -2.0940   -1.1422    0.1164 C   0  0  0  0  0  0  0  0  0  0  0  0
   -3.4397   -0.6932    0.0538 C   0  0  0  0  0  0  0  0  0  0  0  0
   -2.1365   -2.5295    0.2209 C   0  0  0  0  0  0  0  0  0  0  0  0
   -3.9632    0.6377   -0.0584 C   0  0  0  0  0  0  0  0  0  0  0  0
   -0.8284   -0.5341    0.0968 C   0  0  0  0  0  0  0  0  0  0  0  0
   -4.2529   -1.8039    0.1209 C   0  0  0  0  0  0  0  0  0  0  0  0
    0.2914   -1.3593    0.1830 C   0  0  0  0  0  0  0  0  0  0  0  0
    0.1038   -2.7313    0.2834 C   0  0  0  0  0  0  0  0  0  0  0  0
   -4.7577    0.9840   -1.1512 C   0  0  0  0  0  0  0  0  0  0  0  0
   -3.6778    1.5853    0.9245 C   0  0  0  0  0  0  0  0  0  0  0  0
    1.9403    0.5344    0.0715 C   0  0  0  0  0  0  0  0  0  0  0  0
   -5.2670    2.2781   -1.2613 C   0  0  0  0  0  0  0  0  0  0  0  0
   -4.1870    2.8792    0.8146 C   0  0  0  0  0  0  0  0  0  0  0  0
    3.4016    0.8042    0.1100 C   0  0  0  0  0  0  0  0  0  0  0  0
   -4.9815    3.2256   -0.2784 C   0  0  0  0  0  0  0  0  0  0  0  0
    4.3021   -0.1415   -0.3803 C   0  0  0  0  0  0  0  0  0  0  0  0
    3.8716    2.0068    0.6379 C   0  0  0  0  0  0  0  0  0  0  0  0
    5.6726    0.1153   -0.3426 C   0  0  0  0  0  0  0  0  0  0  0  0
    5.2421    2.2634    0.6757 C   0  0  0  0  0  0  0  0  0  0  0  0
    6.1426    1.3177    0.1855 C   0  0  0  0  0  0  0  0  0  0  0  0
   -0.7937    0.5412    0.0136 H   0  0  0  0  0  0  0  0  0  0  0  0
   -5.3292   -1.9130    0.1082 H   0  0  0  0  0  0  0  0  0  0  0  0
   -3.7808   -3.8652    0.2877 H   0  0  0  0  0  0  0  0  0  0  0  0
    0.9585   -3.4008    0.3519 H   0  0  0  0  0  0  0  0  0  0  0  0
   -4.9883    0.2620   -1.9312 H   0  0  0  0  0  0  0  0  0  0  0  0
   -3.0633    1.3337    1.7858 H   0  0  0  0  0  0  0  0  0  0  0  0
    2.3223   -1.5001    0.2560 H   0  0  0  0  0  0  0  0  0  0  0  0
   -5.8847    2.5482   -2.1127 H   0  0  0  0  0  0  0  0  0  0  0  0
   -3.9654    3.6171    1.5801 H   0  0  0  0  0  0  0  0  0  0  0  0
   -5.3778    4.2332   -0.3640 H   0  0  0  0  0  0  0  0  0  0  0  0
    3.1870    2.7544    1.0298 H   0  0  0  0  0  0  0  0  0  0  0  0
    5.6085    3.1990    1.0880 H   0  0  0  0  0  0  0  0  0  0  0  0
    7.2097    1.5169    0.2153 H   0  0  0  0  0  0  0  0  0  0  0  0
  1 22  1  0  0  0  0
  2 24  1  0  0  0  0
  3 17  2  0  0  0  0
  4  9  1  0  0  0  0
  4 12  1  0  0  0  0
  4 29  1  0  0  0  0
  5  9  1  0  0  0  0
  5 14  2  0  0  0  0
  6 13  1  0  0  0  0
  6 17  1  0  0  0  0
  6 33  1  0  0  0  0
  7  8  1  0  0  0  0
  7  9  2  0  0  0  0
  7 11  1  0  0  0  0
  8 10  1  0  0  0  0
  8 12  2  0  0  0  0
 10 15  2  0  0  0  0
 10 16  1  0  0  0  0
 11 13  2  0  0  0  0
 11 27  1  0  0  0  0
 12 28  1  0  0  0  0
 13 14  1  0  0  0  0
 14 30  1  0  0  0  0
 15 18  1  0  0  0  0
 15 31  1  0  0  0  0
 16 19  2  0  0  0  0
 16 32  1  0  0  0  0
 17 20  1  0  0  0  0
 18 21  2  0  0  0  0
 18 34  1  0  0  0  0
 19 21  1  0  0  0  0
 19 35  1  0  0  0  0
 20 22  2  0  0  0  0
 20 23  1  0  0  0  0
 21 36  1  0  0  0  0
 22 24  1  0  0  0  0
 23 25  2  0  0  0  0
 23 37  1  0  0  0  0
 24 26  2  0  0  0  0
 25 26  1  0  0  0  0
 25 38  1  0  0  0  0
 26 39  1  0  0  0  0
M  END
> <PUBCHEM_COMPOUND_CID>
49830276

> <PUBCHEM_CONFORMER_RMSD>
0.8

> <PUBCHEM_CONFORMER_DIVERSEORDER>
1
8
16
24
6
13
9
17
5
20
23
11
7
21
10
18
22
14
19
12
2
15
4
3

> <PUBCHEM_MMFF94_PARTIAL_CHARGES>
38
1 -0.19
10 0.05
11 -0.15
12 -0.3
13 0.12
14 0.16
15 -0.15
16 -0.15
17 0.54
18 -0.15
19 -0.15
2 -0.19
20 0.09
21 -0.15
22 0.19
23 -0.15
24 0.19
25 -0.15
26 -0.15
27 0.15
28 0.15
29 0.27
3 -0.57
30 0.15
31 0.15
32 0.15
33 0.37
34 0.15
35 0.15
36 0.15
37 0.15
38 0.15
39 0.15
4 0.03
5 -0.57
6 -0.55
8 -0.05
9 0.11

> <PUBCHEM_EFFECTIVE_ROTOR_COUNT>
4

> <PUBCHEM_PHARMACOPHORE_FEATURES>
9
1 3 acceptor
1 4 cation
1 4 donor
1 5 acceptor
1 6 donor
5 4 7 8 9 12 rings
6 10 15 16 18 19 21 rings
6 20 22 23 24 25 26 rings
6 5 7 9 11 13 14 rings

> <PUBCHEM_HEAVY_ATOM_COUNT>
26

> <PUBCHEM_ATOM_DEF_STEREO_COUNT>
0

> <PUBCHEM_ATOM_UDEF_STEREO_COUNT>
0

> <PUBCHEM_BOND_DEF_STEREO_COUNT>
0

> <PUBCHEM_BOND_UDEF_STEREO_COUNT>
0

> <PUBCHEM_ISOTOPIC_ATOM_COUNT>
0

> <PUBCHEM_COMPONENT_COUNT>
1

> <PUBCHEM_CACTVS_TAUTO_COUNT>
4

> <PUBCHEM_CONFORMER_ID>
02F8598400000001

> <PUBCHEM_MMFF94_ENERGY>
70.3463

> <PUBCHEM_FEATURE_SELFOVERLAP>
45.784

> <PUBCHEM_SHAPE_FINGERPRINT>
10050765 1 18337389336610525747
10411042 1 17760931041060167563
10669705 162 17774176582967073190
10835480 77 18343015627888259512
11135609 187 18264758884588489173
12107183 9 18190448373422406746
12390115 104 18409455769394840175
12422481 6 17168142278436111982
13073987 5 18334009532149775162
13944108 23 17764306137545048329
14251764 38 18339084903155705172
14251764 75 17983021042656955817
14347329 18 18411692171360815129
14508225 48 17622712542470802679
14713325 29 18335989752802415899
14790565 3 18265614286246143489
14848178 96 18339919312427532393
14931854 50 18200579312484855181
14950920 106 14346091818867765277
15021287 119 17095243644335181156
15042514 8 17975701907025013435
15052358 14 18340779130884385422
15183329 4 18411982425788261114
15419008 42 18059016069173759462
15980000 95 17112406715391091178
17349148 13 13110967547823518836
17844677 252 18337678641042838056
18608769 82 18411420644503898371
19315092 285 13553202111543152933
21033648 144 17629196289123588712
21033648 29 18270669982645376672
21236236 1 18411136965496749677
21279426 13 18342463612773276694
21315763 129 18340204223704835056
21315764 268 18198622327077414304
21421861 104 17749936762495339346
22393880 68 18412821391292779059
23559900 14 18273214231615238384
23569914 152 17125942889619807844
23569914 2 17552587726196684864
283562 15 18335697304379806331
2838139 119 18342171129315559413
350125 39 18409732889659815291
4073 2 18261959647920749010
4214541 1 18339081591898859050
445580 125 18271536324677412888
474 4 18049716327212232507
508706 21 18337101367188796749
5104073 3 18186799162611484066
5283173 99 18412826915000711832
531348 171 18060416915243039231
5372103 7 17170368764747004365
6327066 14 18261384495881220661
6328613 192 18334021618504354732
7288768 16 17968381144111006459
7808743 9 18408880733440514449
9980921 221 18128280938227414980
9981440 41 18334013891715634739

> <PUBCHEM_SHAPE_MULTIPOLES>
499.71
15.32
3.85
0.88
15.43
0.61
0.09
-10.34
2.3
-4.83
-0.49
-0.41
-0.33
1.33

> <PUBCHEM_SHAPE_SELFOVERLAP>
1125.885

> <PUBCHEM_SHAPE_VOLUME>
262.4

> <PUBCHEM_COORDINATE_TYPE>
2
5
10

$$$$
