49830761
  -OEChem-10052120443D

 35 37  0     0  0  0  0  0  0999 V2000
   -4.6592   -3.5237   -0.3511 Cl  0  0  0  0  0  0  0  0  0  0  0  0
    3.1044    1.7161   -0.8735 S   0  0  0  0  0  0  0  0  0  0  0  0
    0.6124    3.1791   -0.4235 O   0  0  0  0  0  0  0  0  0  0  0  0
   -0.5591    1.6416    0.8589 N   0  0  0  0  0  0  0  0  0  0  0  0
    4.9663   -1.5036   -0.2384 N   0  0  0  0  0  0  0  0  0  0  0  0
    4.9383   -0.2532   -0.8068 N   0  0  0  0  0  0  0  0  0  0  0  0
    3.0235   -0.7387    0.3054 C   0  0  0  0  0  0  0  0  0  0  0  0
   -2.7739    2.1688   -0.0972 C   0  0  0  0  0  0  0  0  0  0  0  0
   -1.7536    2.4267    1.0185 C   0  0  0  0  0  0  0  0  0  0  0  0
    3.8023   -1.8352    0.4545 C   0  0  0  0  0  0  0  0  0  0  0  0
    3.7559    0.1572   -0.4503 C   0  0  0  0  0  0  0  0  0  0  0  0
    1.6880    1.1492    0.0461 C   0  0  0  0  0  0  0  0  0  0  0  0
    1.7795   -0.1408    0.6034 C   0  0  0  0  0  0  0  0  0  0  0  0
   -3.2433    0.7547   -0.1606 C   0  0  0  0  0  0  0  0  0  0  0  0
    0.5422    2.0900    0.1398 C   0  0  0  0  0  0  0  0  0  0  0  0
    3.6243   -3.1249    1.1348 C   0  0  0  0  0  0  0  0  0  0  0  0
   -2.5627   -0.1708   -0.9517 C   0  0  0  0  0  0  0  0  0  0  0  0
   -4.3624    0.3573    0.5712 C   0  0  0  0  0  0  0  0  0  0  0  0
   -3.0012   -1.4936   -1.0114 C   0  0  0  0  0  0  0  0  0  0  0  0
   -4.8011   -0.9653    0.5115 C   0  0  0  0  0  0  0  0  0  0  0  0
   -4.1205   -1.8908   -0.2797 C   0  0  0  0  0  0  0  0  0  0  0  0
   -3.6340    2.8355    0.0461 H   0  0  0  0  0  0  0  0  0  0  0  0
   -2.3421    2.4537   -1.0658 H   0  0  0  0  0  0  0  0  0  0  0  0
   -1.4877    3.4893    1.0333 H   0  0  0  0  0  0  0  0  0  0  0  0
   -2.1787    2.1722    1.9957 H   0  0  0  0  0  0  0  0  0  0  0  0
    1.0007   -0.6165    1.1842 H   0  0  0  0  0  0  0  0  0  0  0  0
   -0.5523    0.7258    1.2936 H   0  0  0  0  0  0  0  0  0  0  0  0
    5.7971   -2.0695   -0.3602 H   0  0  0  0  0  0  0  0  0  0  0  0
    3.7011   -3.9526    0.4225 H   0  0  0  0  0  0  0  0  0  0  0  0
    4.3873   -3.2642    1.9072 H   0  0  0  0  0  0  0  0  0  0  0  0
    2.6431   -3.1860    1.6165 H   0  0  0  0  0  0  0  0  0  0  0  0
   -1.6903    0.1247   -1.5286 H   0  0  0  0  0  0  0  0  0  0  0  0
   -4.8999    1.0683    1.1930 H   0  0  0  0  0  0  0  0  0  0  0  0
   -2.4608   -2.2039   -1.6318 H   0  0  0  0  0  0  0  0  0  0  0  0
   -5.6741   -1.2610    1.0877 H   0  0  0  0  0  0  0  0  0  0  0  0
  1 21  1  0  0  0  0
  2 11  1  0  0  0  0
  2 12  1  0  0  0  0
  3 15  2  0  0  0  0
  4  9  1  0  0  0  0
  4 15  1  0  0  0  0
  4 27  1  0  0  0  0
  5  6  1  0  0  0  0
  5 10  1  0  0  0  0
  5 28  1  0  0  0  0
  6 11  2  0  0  0  0
  7 10  2  0  0  0  0
  7 11  1  0  0  0  0
  7 13  1  0  0  0  0
  8  9  1  0  0  0  0
  8 14  1  0  0  0  0
  8 22  1  0  0  0  0
  8 23  1  0  0  0  0
  9 24  1  0  0  0  0
  9 25  1  0  0  0  0
 10 16  1  0  0  0  0
 12 13  2  0  0  0  0
 12 15  1  0  0  0  0
 13 26  1  0  0  0  0
 14 17  2  0  0  0  0
 14 18  1  0  0  0  0
 16 29  1  0  0  0  0
 16 30  1  0  0  0  0
 16 31  1  0  0  0  0
 17 19  1  0  0  0  0
 17 32  1  0  0  0  0
 18 20  2  0  0  0  0
 18 33  1  0  0  0  0
 19 21  2  0  0  0  0
 19 34  1  0  0  0  0
 20 21  1  0  0  0  0
 20 35  1  0  0  0  0
M  END
> <PUBCHEM_COMPOUND_CID>
49830761

> <PUBCHEM_CONFORMER_RMSD>
0.8

> <PUBCHEM_CONFORMER_DIVERSEORDER>
2
8
19
11
12
21
18
10
7
14
3
17
26
24
13
5
20
22
6
15
16
9
4
1
25
23

> <PUBCHEM_MMFF94_PARTIAL_CHARGES>
28
1 -0.18
10 -0.33
11 0.39
12 -0.05
13 -0.15
14 -0.14
15 0.71
16 0.18
17 -0.15
18 -0.15
19 -0.15
2 -0.11
20 -0.15
21 0.18
26 0.15
27 0.37
28 0.27
3 -0.57
32 0.15
33 0.15
34 0.15
35 0.15
4 -0.73
5 0.3
6 -0.73
7 -0.01
8 0.14
9 0.3

> <PUBCHEM_EFFECTIVE_ROTOR_COUNT>
5

> <PUBCHEM_PHARMACOPHORE_FEATURES>
7
1 3 acceptor
1 4 donor
1 5 donor
1 6 acceptor
5 2 7 11 12 13 rings
5 5 6 7 10 11 rings
6 14 17 18 19 20 21 rings

> <PUBCHEM_HEAVY_ATOM_COUNT>
21

> <PUBCHEM_ATOM_DEF_STEREO_COUNT>
0

> <PUBCHEM_ATOM_UDEF_STEREO_COUNT>
0

> <PUBCHEM_BOND_DEF_STEREO_COUNT>
0

> <PUBCHEM_BOND_UDEF_STEREO_COUNT>
0

> <PUBCHEM_ISOTOPIC_ATOM_COUNT>
0

> <PUBCHEM_COMPONENT_COUNT>
1

> <PUBCHEM_CACTVS_TAUTO_COUNT>
14

> <PUBCHEM_CONFORMER_ID>
02F85B6900000002

> <PUBCHEM_MMFF94_ENERGY>
65.9625

> <PUBCHEM_FEATURE_SELFOVERLAP>
35.789

> <PUBCHEM_SHAPE_FINGERPRINT>
10616163 171 18342459196871871039
10928967 22 18270684293650915159
11796584 16 18271813371558749988
12174731 88 17468182354474778306
12410352 35 18338796715302775138
12553582 1 18412818088484007807
12633257 1 18131082549646474579
12969540 37 18337945813462234224
13103583 49 17988660617998867507
13167823 11 18410015394901260008
13533116 47 17981605181023058887
13631057 29 18341332279548227052
13726171 33 17772781409316155928
14576447 43 18408044009476304228
14767858 380 18188508959892270924
14866123 147 18342742893485851419
15250474 111 18409163285963743562
15352361 1 18412261765913167431
15537594 2 18337122193242511626
17492 89 18339359763988021543
18915474 69 18409168796770456356
20291156 8 18411979169797174089
20403669 9 18272936029144949487
20775530 9 18269828882347108855
21054139 6 18334581252826964582
21315759 227 18188759686280522883
21634736 98 18409168818277051692
221490 88 18336550524479333104
22950370 63 18411142441268802806
23379529 103 18198350559106776238
235170 7 16515398577629024799
23559900 14 18342165683207857577
3004659 81 18334574641938606237
3246872 21 18410006637184213258
339767 52 18339630149385196938
341906 21 10953746629069133540
351380 3 18341897385074214062
4283 87 18334852788431999666
44062 13 18336261267601942501
44880168 125 17274833444982845295
46194498 28 17168146809642569981
5104073 3 18131071558366475841
556388 4 18337950220161639123
56633871 153 18342746195978630883
7970288 3 18412261744249122015
88748 71 18334577906245776083

> <PUBCHEM_SHAPE_MULTIPOLES>
417.08
11.75
3.83
1.01
0.29
1.03
0.01
9.14
-0.82
1.03
0.42
-0.07
0.06
-1.75

> <PUBCHEM_SHAPE_SELFOVERLAP>
880.94

> <PUBCHEM_SHAPE_VOLUME>
237.7

> <PUBCHEM_COORDINATE_TYPE>
2
5
10

$$$$
