49830544
  -OEChem-10062121533D

 45 48  0     0  0  0  0  0  0999 V2000
    4.0612   -3.2098    0.7775 O   0  0  0  0  0  0  0  0  0  0  0  0
    5.7410   -0.6609    0.7924 O   0  0  0  0  0  0  0  0  0  0  0  0
   -5.7707   -0.8688   -0.3398 O   0  0  0  0  0  0  0  0  0  0  0  0
    1.5090   -1.7046   -0.4614 N   0  0  0  0  0  0  0  0  0  0  0  0
    3.3569    1.1122   -0.4477 N   0  0  0  0  0  0  0  0  0  0  0  0
   -1.2066    4.1872   -0.2021 N   0  0  0  0  0  0  0  0  0  0  0  0
   -1.9231    3.6275    0.7868 N   0  0  0  0  0  0  0  0  0  0  0  0
   -3.6366   -0.4078    0.5501 N   0  0  0  0  0  0  0  0  0  0  0  0
    2.7050   -1.2958   -0.1327 C   0  0  0  0  0  0  0  0  0  0  0  0
    3.4520   -0.1621   -0.1260 C   0  0  0  0  0  0  0  0  0  0  0  0
    0.7453   -2.6501    0.3253 C   0  0  0  0  0  0  0  0  0  0  0  0
    3.7954   -2.0888    0.4304 C   0  0  0  0  0  0  0  0  0  0  0  0
    4.6079   -0.8558    0.4376 C   0  0  0  0  0  0  0  0  0  0  0  0
    2.2132    1.9421   -0.4402 C   0  0  0  0  0  0  0  0  0  0  0  0
   -0.7122   -2.5821   -0.0379 C   0  0  0  0  0  0  0  0  0  0  0  0
    0.0570    2.5252    0.4686 C   0  0  0  0  0  0  0  0  0  0  0  0
    1.1857    1.6886    0.4770 C   0  0  0  0  0  0  0  0  0  0  0  0
   -0.0073    3.5729   -0.4431 C   0  0  0  0  0  0  0  0  0  0  0  0
    2.1229    3.0015   -1.3450 C   0  0  0  0  0  0  0  0  0  0  0  0
   -1.4979   -1.5265    0.4247 C   0  0  0  0  0  0  0  0  0  0  0  0
    1.0058    3.8430   -1.3657 C   0  0  0  0  0  0  0  0  0  0  0  0
   -1.2786   -3.5749   -0.8376 C   0  0  0  0  0  0  0  0  0  0  0  0
   -2.8500   -1.4634    0.0877 C   0  0  0  0  0  0  0  0  0  0  0  0
   -1.1512    2.6166    1.1923 C   0  0  0  0  0  0  0  0  0  0  0  0
   -2.6307   -3.5120   -1.1744 C   0  0  0  0  0  0  0  0  0  0  0  0
   -3.4165   -2.4561   -0.7120 C   0  0  0  0  0  0  0  0  0  0  0  0
   -4.9992   -0.1779    0.3177 C   0  0  0  0  0  0  0  0  0  0  0  0
   -5.4777    1.0806    0.9974 C   0  0  0  0  0  0  0  0  0  0  0  0
    1.1321   -3.6638    0.1642 H   0  0  0  0  0  0  0  0  0  0  0  0
    0.8511   -2.4416    1.3984 H   0  0  0  0  0  0  0  0  0  0  0  0
    0.9357   -1.1088   -1.0570 H   0  0  0  0  0  0  0  0  0  0  0  0
    4.2037    1.6570   -0.6021 H   0  0  0  0  0  0  0  0  0  0  0  0
    1.2447    0.8823    1.2013 H   0  0  0  0  0  0  0  0  0  0  0  0
    2.9284    3.1863   -2.0528 H   0  0  0  0  0  0  0  0  0  0  0  0
   -1.0546   -0.7557    1.0508 H   0  0  0  0  0  0  0  0  0  0  0  0
    0.9336    4.6660   -2.0679 H   0  0  0  0  0  0  0  0  0  0  0  0
   -0.6779   -4.4019   -1.2066 H   0  0  0  0  0  0  0  0  0  0  0  0
   -1.4997    1.9875    1.9992 H   0  0  0  0  0  0  0  0  0  0  0  0
   -1.5951    4.9926   -0.6768 H   0  0  0  0  0  0  0  0  0  0  0  0
   -3.0706   -4.2854   -1.7976 H   0  0  0  0  0  0  0  0  0  0  0  0
   -4.4539   -2.4757   -1.0151 H   0  0  0  0  0  0  0  0  0  0  0  0
   -3.1511    0.2749    1.1279 H   0  0  0  0  0  0  0  0  0  0  0  0
   -4.9218    1.9415    0.6152 H   0  0  0  0  0  0  0  0  0  0  0  0
   -5.3270    0.9985    2.0774 H   0  0  0  0  0  0  0  0  0  0  0  0
   -6.5425    1.2284    0.7973 H   0  0  0  0  0  0  0  0  0  0  0  0
  1 12  2  0  0  0  0
  2 13  2  0  0  0  0
  3 27  2  0  0  0  0
  4  9  1  0  0  0  0
  4 11  1  0  0  0  0
  4 31  1  0  0  0  0
  5 10  1  0  0  0  0
  5 14  1  0  0  0  0
  5 32  1  0  0  0  0
  6  7  1  0  0  0  0
  6 18  1  0  0  0  0
  6 39  1  0  0  0  0
  7 24  2  0  0  0  0
  8 23  1  0  0  0  0
  8 27  1  0  0  0  0
  8 42  1  0  0  0  0
  9 10  2  0  0  0  0
  9 12  1  0  0  0  0
 10 13  1  0  0  0  0
 11 15  1  0  0  0  0
 11 29  1  0  0  0  0
 11 30  1  0  0  0  0
 12 13  1  0  0  0  0
 14 17  2  0  0  0  0
 14 19  1  0  0  0  0
 15 20  2  0  0  0  0
 15 22  1  0  0  0  0
 16 17  1  0  0  0  0
 16 18  2  0  0  0  0
 16 24  1  0  0  0  0
 17 33  1  0  0  0  0
 18 21  1  0  0  0  0
 19 21  2  0  0  0  0
 19 34  1  0  0  0  0
 20 23  1  0  0  0  0
 20 35  1  0  0  0  0
 21 36  1  0  0  0  0
 22 25  2  0  0  0  0
 22 37  1  0  0  0  0
 23 26  2  0  0  0  0
 24 38  1  0  0  0  0
 25 26  1  0  0  0  0
 25 40  1  0  0  0  0
 26 41  1  0  0  0  0
 27 28  1  0  0  0  0
 28 43  1  0  0  0  0
 28 44  1  0  0  0  0
 28 45  1  0  0  0  0
M  END
> <PUBCHEM_COMPOUND_CID>
49830544

> <PUBCHEM_CONFORMER_RMSD>
1.4

> <PUBCHEM_CONFORMER_DIVERSEORDER>
1
111
64
74
85
100
79
23
80
91
35
7
109
25
77
46
51
54
27
67
40
4
97
83
101
98
75
89
115
43
50
39
81
2
45
61
59
87
10
42
12
69
30
106
86
22
3
102
49
72
112
119
110
47
117
82
53
33
68
37
11
41
21
84
99
66
28
38
104
29
107
71
96
44
113
62
95
88
5
57
9
52
32
114
116
19
34
31
90
8
103
6
24
14
26
20
70
94
93
56
36
13
55
60
65
48
73
76
16
108
15
92
118
18
63
58
78
105
17

> <PUBCHEM_MMFF94_PARTIAL_CHARGES>
39
1 -0.57
10 0.03
11 0.51
12 0.64
13 0.64
14 0.1
15 -0.14
17 -0.15
18 -0.15
19 -0.15
2 -0.57
20 -0.15
21 -0.15
22 -0.15
23 0.12
24 0.14
25 -0.15
26 -0.15
27 0.57
28 0.06
3 -0.57
31 0.4
32 0.4
33 0.15
34 0.15
35 0.15
36 0.15
37 0.15
38 0.15
39 0.27
4 -0.87
40 0.15
41 0.15
42 0.37
5 -0.6
6 0.3
7 -0.71
8 -0.55
9 0.03

> <PUBCHEM_EFFECTIVE_ROTOR_COUNT>
7

> <PUBCHEM_PHARMACOPHORE_FEATURES>
14
1 1 acceptor
1 2 acceptor
1 3 acceptor
1 4 cation
1 4 donor
1 5 cation
1 5 donor
1 6 donor
1 7 acceptor
1 8 donor
4 9 10 12 13 rings
5 6 7 16 18 24 rings
6 14 16 17 18 19 21 rings
6 15 20 22 23 25 26 rings

> <PUBCHEM_HEAVY_ATOM_COUNT>
28

> <PUBCHEM_ATOM_DEF_STEREO_COUNT>
0

> <PUBCHEM_ATOM_UDEF_STEREO_COUNT>
0

> <PUBCHEM_BOND_DEF_STEREO_COUNT>
0

> <PUBCHEM_BOND_UDEF_STEREO_COUNT>
0

> <PUBCHEM_ISOTOPIC_ATOM_COUNT>
0

> <PUBCHEM_COMPONENT_COUNT>
1

> <PUBCHEM_CACTVS_TAUTO_COUNT>
32

> <PUBCHEM_CONFORMER_ID>
02F85A9000000001

> <PUBCHEM_MMFF94_ENERGY>
81.7555

> <PUBCHEM_FEATURE_SELFOVERLAP>
71.139

> <PUBCHEM_SHAPE_FINGERPRINT>
10006869 2 17975403625824838403
10074138 170 15953261928132704483
10439779 11 17837196439878579376
10688039 33 18113901511551083213
1100329 8 18410575132119021107
11513181 2 17844246207893878311
12422481 6 17907890339050886553
12788726 201 18340222829276717152
13004483 165 18335973178264839282
13122387 1 17978516325783335861
13140716 1 18338515364896362738
138480 1 15529675004763854606
14028597 1 17604410926713004082
14117953 113 18268717104276495869
15210252 30 18115312327236424692
19930381 70 16899049267623643919
20567600 299 18054789747733174652
20764821 26 18337100263371646381
21133410 221 14029131616579572681
21860390 5 18270122451851570550
22113638 7 18412263952030370207
238 59 17116076344322713630
3052486 1 18193290589447056302
338550 245 18337402534775708673
3680242 22 18337963294163596243
463206 1 18339929328370349049
653340 110 18269548347836263656

> <PUBCHEM_SHAPE_MULTIPOLES>
533.71
9.78
6.3
1.07
4.38
3.45
0.13
-4.76
-1.74
-0.08
1.18
0.06
0.35
-2.63

> <PUBCHEM_SHAPE_SELFOVERLAP>
1178.478

> <PUBCHEM_SHAPE_VOLUME>
284

> <PUBCHEM_COORDINATE_TYPE>
2
5
10

$$$$
