1893668
  -OEChem-10062122003D

 32 33  0     0  0  0  0  0  0999 V2000
   -1.2501   -1.5253   -0.1210 S   0  0  0  0  0  0  0  0  0  0  0  0
    4.3236    0.4182    0.1052 O   0  0  0  0  0  0  0  0  0  0  0  0
   -4.4410   -1.1252    1.0464 O   0  0  0  0  0  0  0  0  0  0  0  0
   -0.5295    1.0238    0.2693 N   0  0  0  0  0  0  0  0  0  0  0  0
    0.6725    0.3019    0.1383 C   0  0  0  0  0  0  0  0  0  0  0  0
   -0.4960    2.4559    0.4954 C   0  0  0  0  0  0  0  0  0  0  0  0
    0.4852   -1.0821   -0.0770 C   0  0  0  0  0  0  0  0  0  0  0  0
   -1.6476    0.1954    0.1573 C   0  0  0  0  0  0  0  0  0  0  0  0
    1.9692    0.8039    0.1989 C   0  0  0  0  0  0  0  0  0  0  0  0
    1.5530   -1.9557   -0.2297 C   0  0  0  0  0  0  0  0  0  0  0  0
    3.0520   -0.0688    0.0461 C   0  0  0  0  0  0  0  0  0  0  0  0
   -0.4679    3.2186   -0.8183 C   0  0  0  0  0  0  0  0  0  0  0  0
    2.8453   -1.4377   -0.1665 C   0  0  0  0  0  0  0  0  0  0  0  0
   -2.9437    0.5366    0.2328 C   0  0  0  0  0  0  0  0  0  0  0  0
   -4.0042   -0.4916    0.0884 C   0  0  0  0  0  0  0  0  0  0  0  0
   -4.5056   -0.7473   -1.3084 C   0  0  0  0  0  0  0  0  0  0  0  0
    5.3846   -0.5204   -0.0572 C   0  0  0  0  0  0  0  0  0  0  0  0
   -1.3873    2.7649    1.0552 H   0  0  0  0  0  0  0  0  0  0  0  0
    0.3439    2.7556    1.1324 H   0  0  0  0  0  0  0  0  0  0  0  0
    2.1678    1.8594    0.3544 H   0  0  0  0  0  0  0  0  0  0  0  0
    1.3964   -3.0168   -0.3943 H   0  0  0  0  0  0  0  0  0  0  0  0
   -0.4714    4.2969   -0.6309 H   0  0  0  0  0  0  0  0  0  0  0  0
    0.4269    2.9787   -1.4013 H   0  0  0  0  0  0  0  0  0  0  0  0
   -1.3414    2.9778   -1.4333 H   0  0  0  0  0  0  0  0  0  0  0  0
    3.6490   -2.1557   -0.2909 H   0  0  0  0  0  0  0  0  0  0  0  0
   -3.2749    1.5549    0.3971 H   0  0  0  0  0  0  0  0  0  0  0  0
   -4.0033   -0.1011   -2.0340 H   0  0  0  0  0  0  0  0  0  0  0  0
   -4.3154   -1.7895   -1.5781 H   0  0  0  0  0  0  0  0  0  0  0  0
   -5.5784   -0.5405   -1.3465 H   0  0  0  0  0  0  0  0  0  0  0  0
    6.3236    0.0380    0.0178 H   0  0  0  0  0  0  0  0  0  0  0  0
    5.3673   -0.9811   -1.0509 H   0  0  0  0  0  0  0  0  0  0  0  0
    5.3922   -1.2642    0.7468 H   0  0  0  0  0  0  0  0  0  0  0  0
  1  7  1  0  0  0  0
  1  8  1  0  0  0  0
  2 11  1  0  0  0  0
  2 17  1  0  0  0  0
  3 15  2  0  0  0  0
  4  5  1  0  0  0  0
  4  6  1  0  0  0  0
  4  8  1  0  0  0  0
  5  7  2  0  0  0  0
  5  9  1  0  0  0  0
  6 12  1  0  0  0  0
  6 18  1  0  0  0  0
  6 19  1  0  0  0  0
  7 10  1  0  0  0  0
  8 14  2  0  0  0  0
  9 11  2  0  0  0  0
  9 20  1  0  0  0  0
 10 13  2  0  0  0  0
 10 21  1  0  0  0  0
 11 13  1  0  0  0  0
 12 22  1  0  0  0  0
 12 23  1  0  0  0  0
 12 24  1  0  0  0  0
 13 25  1  0  0  0  0
 14 15  1  0  0  0  0
 14 26  1  0  0  0  0
 15 16  1  0  0  0  0
 16 27  1  0  0  0  0
 16 28  1  0  0  0  0
 16 29  1  0  0  0  0
 17 30  1  0  0  0  0
 17 31  1  0  0  0  0
 17 32  1  0  0  0  0
M  END
> <PUBCHEM_COMPOUND_CID>
1893668

> <PUBCHEM_CONFORMER_RMSD>
0.6

> <PUBCHEM_CONFORMER_DIVERSEORDER>
2
7
3
6
4
5
1
8

> <PUBCHEM_MMFF94_PARTIAL_CHARGES>
20
1 -0.2
10 -0.15
11 0.08
13 -0.15
14 -0.14
15 0.49
16 0.06
17 0.28
2 -0.36
20 0.15
21 0.15
25 0.15
26 0.15
3 -0.57
4 -0.57
5 0.1
6 0.37
7 0.1
8 0.2
9 -0.15

> <PUBCHEM_EFFECTIVE_ROTOR_COUNT>
3.4

> <PUBCHEM_PHARMACOPHORE_FEATURES>
5
1 2 acceptor
1 3 acceptor
1 4 cation
5 1 4 5 7 8 rings
6 5 7 9 10 11 13 rings

> <PUBCHEM_HEAVY_ATOM_COUNT>
17

> <PUBCHEM_ATOM_DEF_STEREO_COUNT>
0

> <PUBCHEM_ATOM_UDEF_STEREO_COUNT>
0

> <PUBCHEM_BOND_DEF_STEREO_COUNT>
1

> <PUBCHEM_BOND_UDEF_STEREO_COUNT>
0

> <PUBCHEM_ISOTOPIC_ATOM_COUNT>
0

> <PUBCHEM_COMPONENT_COUNT>
1

> <PUBCHEM_CACTVS_TAUTO_COUNT>
2

> <PUBCHEM_CONFORMER_ID>
001CE52400000002

> <PUBCHEM_MMFF94_ENERGY>
62.6179

> <PUBCHEM_FEATURE_SELFOVERLAP>
25.436

> <PUBCHEM_SHAPE_FINGERPRINT>
10967382 1 18411982498401882418
11132069 177 18201429298758760058
11471102 20 18412259549525543366
11680986 33 18051690237529436321
11806522 49 18272646891893763463
12032990 46 18410299111835055555
12236239 1 17561365110667209495
12403259 226 18340482245675864104
12500047 106 9655279428851303296
13140716 1 18268707401940138306
13862211 1 18413101767069474846
14252887 29 17988656184959855230
14576447 43 18129929187408064151
15196674 1 18341051809282698810
15848700 24 18341603845645060813
167882 2 18045503281163269796
16945 1 18412256208262279762
17357779 13 18336249190011748045
18769570 83 16298936564101940117
187816 3 18040154019606901171
18785283 64 17827654852456279033
200 152 18202558480284347831
20510252 161 18270963423511594152
20671657 1 18053668250706237889
21029758 11 18342170085891726881
21029758 27 18335708273082104181
21267235 1 18340778103722712367
21501502 16 18122627154504108304
2334 1 18051975024126333464
23402539 116 18342170055478588415
23402655 69 18271802381090627031
23557571 272 18339928103988191204
23558518 356 17972611991212529176
23559900 14 17981036415319856914
25610 137 18411140207891096512
2748010 2 18124030389060371592
2871803 45 18409727322854834742
3071541 158 18261672687817289501
3286 77 17274816986868197584
34934 24 18411129251524957147
474229 33 18411418419246868450
5104073 3 18269274569372239714
537710 114 18337962276055847772
57003041 33 18408882927984036862
68521 5 18335983081963876316
7364860 26 18196091281675803129
7495541 125 17823993418658776267
81228 2 18191036611758280921
9709674 26 18340213985833709150

> <PUBCHEM_SHAPE_MULTIPOLES>
336.98
8.61
2.45
0.83
1.83
2.02
-0.1
-3.39
-0.35
-0.4
-0.37
-0.7
0.02
0.11

> <PUBCHEM_SHAPE_SELFOVERLAP>
694.691

> <PUBCHEM_SHAPE_VOLUME>
196.6

> <PUBCHEM_COORDINATE_TYPE>
2
5
10

$$$$
