49831041
  -OEChem-10062121553D

 32 34  0     1  0  0  0  0  0999 V2000
   -1.9596    3.5049   -0.5871 I   0  0  0  0  0  0  0  0  0  0  0  0
    2.1360   -0.0200    1.0225 O   0  0  0  0  0  0  0  0  0  0  0  0
    2.1443   -2.7395   -0.7261 O   0  0  0  0  0  0  0  0  0  0  0  0
    2.5254    0.6573   -1.8715 O   0  0  0  0  0  0  0  0  0  0  0  0
    4.4467    1.3870    1.7581 O   0  0  0  0  0  0  0  0  0  0  0  0
   -0.1591   -0.1006    0.2117 N   0  0  0  0  0  0  0  0  0  0  0  0
   -0.1209    1.2181   -0.0552 N   0  0  0  0  0  0  0  0  0  0  0  0
   -1.7709   -1.8816    0.5163 N   0  0  0  0  0  0  0  0  0  0  0  0
   -4.0608   -1.0775    0.2711 N   0  0  0  0  0  0  0  0  0  0  0  0
   -4.5959    1.1887   -0.2094 N   0  0  0  0  0  0  0  0  0  0  0  0
    1.7249   -1.3877   -0.9013 C   0  0  2  0  0  0  0  0  0  0  0  0
    2.9283   -0.4989   -1.1480 C   0  0  2  0  0  0  0  0  0  0  0  0
    1.1348   -0.8591    0.4122 C   0  0  1  0  0  0  0  0  0  0  0  0
    3.3528   -0.1248    0.2657 C   0  0  1  0  0  0  0  0  0  0  0  0
    4.1347    1.1702    0.3914 C   0  0  0  0  0  0  0  0  0  0  0  0
   -1.4229   -0.6086    0.2699 C   0  0  0  0  0  0  0  0  0  0  0  0
   -2.2736    0.4546    0.0232 C   0  0  0  0  0  0  0  0  0  0  0  0
   -1.4116    1.5504   -0.1688 C   0  0  0  0  0  0  0  0  0  0  0  0
   -3.6385    0.1868    0.0290 C   0  0  0  0  0  0  0  0  0  0  0  0
   -3.1142   -2.0196    0.4964 C   0  0  0  0  0  0  0  0  0  0  0  0
    1.0056   -1.3695   -1.7270 H   0  0  0  0  0  0  0  0  0  0  0  0
    0.8911   -1.6583    1.1216 H   0  0  0  0  0  0  0  0  0  0  0  0
    3.7413   -0.9879   -1.6937 H   0  0  0  0  0  0  0  0  0  0  0  0
    3.9191   -0.9471    0.7217 H   0  0  0  0  0  0  0  0  0  0  0  0
    3.5418    2.0275    0.0570 H   0  0  0  0  0  0  0  0  0  0  0  0
    5.0651    1.1244   -0.1825 H   0  0  0  0  0  0  0  0  0  0  0  0
    1.3510   -3.2657   -0.5276 H   0  0  0  0  0  0  0  0  0  0  0  0
    2.2204    0.3619   -2.7463 H   0  0  0  0  0  0  0  0  0  0  0  0
    4.9490    2.2181    1.8089 H   0  0  0  0  0  0  0  0  0  0  0  0
   -3.4866   -3.0205    0.6866 H   0  0  0  0  0  0  0  0  0  0  0  0
   -4.3081    2.1401   -0.3928 H   0  0  0  0  0  0  0  0  0  0  0  0
   -5.5770    0.9455   -0.1951 H   0  0  0  0  0  0  0  0  0  0  0  0
  1 18  1  0  0  0  0
  2 13  1  0  0  0  0
  2 14  1  0  0  0  0
  3 11  1  0  0  0  0
  3 27  1  0  0  0  0
  4 12  1  0  0  0  0
  4 28  1  0  0  0  0
  5 15  1  0  0  0  0
  5 29  1  0  0  0  0
  6  7  1  0  0  0  0
  6 13  1  0  0  0  0
  6 16  1  0  0  0  0
  7 18  2  0  0  0  0
  8 16  2  0  0  0  0
  8 20  1  0  0  0  0
  9 19  1  0  0  0  0
  9 20  2  0  0  0  0
 10 19  1  0  0  0  0
 10 31  1  0  0  0  0
 10 32  1  0  0  0  0
 11 12  1  0  0  0  0
 11 13  1  0  0  0  0
 11 21  1  0  0  0  0
 12 14  1  0  0  0  0
 12 23  1  0  0  0  0
 13 22  1  0  0  0  0
 14 15  1  0  0  0  0
 14 24  1  0  0  0  0
 15 25  1  0  0  0  0
 15 26  1  0  0  0  0
 16 17  1  0  0  0  0
 17 18  1  0  0  0  0
 17 19  2  0  0  0  0
 20 30  1  0  0  0  0
M  END
> <PUBCHEM_COMPOUND_CID>
49831041

> <PUBCHEM_CONFORMER_RMSD>
0.6

> <PUBCHEM_CONFORMER_DIVERSEORDER>
1
151
149
61
138
107
67
102
108
79
15
104
112
30
125
72
139
147
78
56
101
152
117
25
114
53
37
19
110
36
92
40
26
134
17
113
129
130
143
70
14
49
103
98
71
2
21
88
128
45
153
3
38
123
121
76
119
10
80
29
109
8
28
118
148
43
137
62
82
34
105
9
41
122
150
23
50
57
42
133
146
97
86
13
135
7
75
68
83
51
127
93
33
111
24
32
12
46
39
11
52
85
132
73
142
44
106
89
69
5
18
87
91
100
99
58
74
22
95
120
20
115
31
141
140
81
65
126
4
145
60
64
47
35
48
144
16
55
6
84
96
77
59
94
63
136
116
27
90
124
131
54
66

> <PUBCHEM_MMFF94_PARTIAL_CHARGES>
25
1 -0.03
10 -0.9
11 0.28
12 0.28
13 0.54
14 0.28
15 0.28
16 0.11
18 0.32
19 0.41
2 -0.56
20 0.47
27 0.4
28 0.4
29 0.4
3 -0.68
30 0.15
31 0.4
32 0.4
4 -0.68
5 -0.68
6 0.31
7 -0.71
8 -0.57
9 -0.62

> <PUBCHEM_EFFECTIVE_ROTOR_COUNT>
3

> <PUBCHEM_PHARMACOPHORE_FEATURES>
16
1 1 hydrophobe
1 10 cation
1 10 donor
1 2 acceptor
1 3 acceptor
1 3 donor
1 4 acceptor
1 4 donor
1 5 acceptor
1 5 donor
1 7 acceptor
3 6 8 16 cation
3 8 9 20 cation
5 2 11 12 13 14 rings
5 6 7 16 17 18 rings
6 8 9 16 17 19 20 rings

> <PUBCHEM_HEAVY_ATOM_COUNT>
20

> <PUBCHEM_ATOM_DEF_STEREO_COUNT>
0

> <PUBCHEM_ATOM_UDEF_STEREO_COUNT>
4

> <PUBCHEM_BOND_DEF_STEREO_COUNT>
0

> <PUBCHEM_BOND_UDEF_STEREO_COUNT>
0

> <PUBCHEM_ISOTOPIC_ATOM_COUNT>
0

> <PUBCHEM_COMPONENT_COUNT>
1

> <PUBCHEM_CACTVS_TAUTO_COUNT>
5

> <PUBCHEM_CONFORMER_ID>
02F85C8100000001

> <PUBCHEM_MMFF94_ENERGY>
46.3219

> <PUBCHEM_FEATURE_SELFOVERLAP>
81.485

> <PUBCHEM_SHAPE_FINGERPRINT>
10319926 262 18337934720241691408
10498660 4 18408046203819574781
10608611 8 18340767027181163712
10646746 165 18336825295376019948
10871710 139 16394925419856302600
11132069 177 18408605880939221193
11715629 250 18341890753855744612
12173636 292 18191303771967690357
12236239 1 17313103073069730408
12553582 1 18263379121320791573
13140716 1 18191028000496480577
13214271 11 18340761645608175895
13965767 371 17101985617360744636
14081887 123 18409726261760646201
14178342 30 18188206503356629796
15219456 202 18272371970710287306
15375358 24 18413385453732465675
15420108 30 16177116538005868842
16752209 62 18190177884987784781
16945 1 18336276673264517709
17134986 127 17468759585309859717
17980427 23 17968935426414509044
18186145 218 18054794974851078005
19049666 15 18198622129440041400
192875 21 16877940564035837124
19591789 44 16318389518941381309
19784866 170 18412826923295032794
20279233 1 18343586243598317563
20510252 161 18339922589683018025
20645477 56 18264773168805189977
20645477 70 17346318146349390646
20693207 138 18128835052889075102
20715895 44 17678440992781689781
23402539 116 18334286595815004486
23557571 272 18408609170921171148
23558518 356 18043819692900868851
23559900 14 18338241470710860086
2748010 2 18046914775183534717
296302 2 18202562908036823467
34934 24 18410004447224840331
350125 39 17903363602323616273
474 4 16444490063647238324
495365 180 17702932635316453251
5104073 3 18411422786843591507
58051976 378 18409444765266608917
6049 1 18201450120928996588
621550 34 18272650164252576616
6913067 236 18128235947805892846
7364860 26 17977675534712183797
81228 2 18189067433809306657
9709674 26 18269276772426873695
9925002 15 17408233029162753574

> <PUBCHEM_SHAPE_MULTIPOLES>
375.14
8.03
2.96
1.11
1.42
1.55
-0.1
1.03
1.11
-2.05
-0.34
1.35
0.2
1.38

> <PUBCHEM_SHAPE_SELFOVERLAP>
788.971

> <PUBCHEM_SHAPE_VOLUME>
217.8

> <PUBCHEM_COORDINATE_TYPE>
2
5
10

$$$$
