49830801
  -OEChem-10052115183D

 46 50  0     0  0  0  0  0  0999 V2000
    1.0871   -1.0921   -2.3654 F   0  0  0  0  0  0  0  0  0  0  0  0
   -1.4538   -4.8488   -1.0269 F   0  0  0  0  0  0  0  0  0  0  0  0
   -2.8125    0.4425    2.4622 O   0  0  0  0  0  0  0  0  0  0  0  0
    5.1531    0.5817    1.2064 O   0  0  0  0  0  0  0  0  0  0  0  0
   -1.4837    1.4794   -0.5400 N   0  0  0  0  0  0  0  0  0  0  0  0
    3.1087    1.0897    0.4974 N   0  0  0  0  0  0  0  0  0  0  0  0
   -0.4435    0.7246   -0.1068 N   0  0  0  0  0  0  0  0  0  0  0  0
   -3.5247    2.1428   -0.9853 N   0  0  0  0  0  0  0  0  0  0  0  0
    3.4865   -1.1046    0.6413 N   0  0  0  0  0  0  0  0  0  0  0  0
   -2.6500    3.1139   -1.4292 N   0  0  0  0  0  0  0  0  0  0  0  0
   -3.8772    0.0332    1.6004 C   0  0  0  0  0  0  0  0  0  0  0  0
   -3.3272   -0.1040    0.1633 C   0  0  0  0  0  0  0  0  0  0  0  0
   -2.8109    1.1748   -0.4562 C   0  0  0  0  0  0  0  0  0  0  0  0
    1.9442    0.5279    0.0991 C   0  0  0  0  0  0  0  0  0  0  0  0
   -4.3597   -1.3387    2.0880 C   0  0  0  0  0  0  0  0  0  0  0  0
   -5.0161    1.0502    1.7108 C   0  0  0  0  0  0  0  0  0  0  0  0
    0.7233    1.2618   -0.3254 C   0  0  0  0  0  0  0  0  0  0  0  0
   -1.4280    2.7073   -1.1577 C   0  0  0  0  0  0  0  0  0  0  0  0
    2.1985   -0.8357    0.1951 C   0  0  0  0  0  0  0  0  0  0  0  0
    3.9759    0.0916    0.8029 C   0  0  0  0  0  0  0  0  0  0  0  0
    0.9344    2.5983   -0.9700 C   0  0  0  0  0  0  0  0  0  0  0  0
   -0.1538    3.2711   -1.3655 C   0  0  0  0  0  0  0  0  0  0  0  0
    1.2573   -1.8681   -0.1235 C   0  0  0  0  0  0  0  0  0  0  0  0
    3.7238    2.2961    0.7026 C   0  0  0  0  0  0  0  0  0  0  0  0
    4.9581    1.9866    1.1308 C   0  0  0  0  0  0  0  0  0  0  0  0
    0.7271   -1.9620   -1.4104 C   0  0  0  0  0  0  0  0  0  0  0  0
    0.8716   -2.7812    0.8581 C   0  0  0  0  0  0  0  0  0  0  0  0
   -0.1889   -2.9688   -1.7155 C   0  0  0  0  0  0  0  0  0  0  0  0
   -0.0446   -3.7878    0.5530 C   0  0  0  0  0  0  0  0  0  0  0  0
   -0.5748   -3.8817   -0.7339 C   0  0  0  0  0  0  0  0  0  0  0  0
   -4.1174   -0.4898   -0.4943 H   0  0  0  0  0  0  0  0  0  0  0  0
   -2.5242   -0.8523    0.1511 H   0  0  0  0  0  0  0  0  0  0  0  0
   -4.7076   -1.2867    3.1262 H   0  0  0  0  0  0  0  0  0  0  0  0
   -5.1768   -1.7221    1.4684 H   0  0  0  0  0  0  0  0  0  0  0  0
   -3.5407   -2.0672    2.0743 H   0  0  0  0  0  0  0  0  0  0  0  0
   -5.8301    0.8198    1.0160 H   0  0  0  0  0  0  0  0  0  0  0  0
   -5.4267    1.0651    2.7272 H   0  0  0  0  0  0  0  0  0  0  0  0
   -4.6630    2.0687    1.5176 H   0  0  0  0  0  0  0  0  0  0  0  0
    1.9220    2.9824   -1.1778 H   0  0  0  0  0  0  0  0  0  0  0  0
   -0.0648    4.2296   -1.8641 H   0  0  0  0  0  0  0  0  0  0  0  0
   -3.1674    0.5185    3.3644 H   0  0  0  0  0  0  0  0  0  0  0  0
    3.2714    3.2613    0.5612 H   0  0  0  0  0  0  0  0  0  0  0  0
    5.7908    2.5965    1.4242 H   0  0  0  0  0  0  0  0  0  0  0  0
    1.2735   -2.7215    1.8668 H   0  0  0  0  0  0  0  0  0  0  0  0
   -0.6021   -3.0416   -2.7170 H   0  0  0  0  0  0  0  0  0  0  0  0
   -0.3459   -4.4983    1.3171 H   0  0  0  0  0  0  0  0  0  0  0  0
  1 26  1  0  0  0  0
  2 30  1  0  0  0  0
  3 11  1  0  0  0  0
  3 41  1  0  0  0  0
  4 20  1  0  0  0  0
  4 25  1  0  0  0  0
  5  7  1  0  0  0  0
  5 13  1  0  0  0  0
  5 18  1  0  0  0  0
  6 14  1  0  0  0  0
  6 20  1  0  0  0  0
  6 24  1  0  0  0  0
  7 17  2  0  0  0  0
  8 10  1  0  0  0  0
  8 13  2  0  0  0  0
  9 19  1  0  0  0  0
  9 20  2  0  0  0  0
 10 18  2  0  0  0  0
 11 12  1  0  0  0  0
 11 15  1  0  0  0  0
 11 16  1  0  0  0  0
 12 13  1  0  0  0  0
 12 31  1  0  0  0  0
 12 32  1  0  0  0  0
 14 17  1  0  0  0  0
 14 19  2  0  0  0  0
 15 33  1  0  0  0  0
 15 34  1  0  0  0  0
 15 35  1  0  0  0  0
 16 36  1  0  0  0  0
 16 37  1  0  0  0  0
 16 38  1  0  0  0  0
 17 21  1  0  0  0  0
 18 22  1  0  0  0  0
 19 23  1  0  0  0  0
 21 22  2  0  0  0  0
 21 39  1  0  0  0  0
 22 40  1  0  0  0  0
 23 26  2  0  0  0  0
 23 27  1  0  0  0  0
 24 25  2  0  0  0  0
 24 42  1  0  0  0  0
 25 43  1  0  0  0  0
 26 28  1  0  0  0  0
 27 29  2  0  0  0  0
 27 44  1  0  0  0  0
 28 30  2  0  0  0  0
 28 45  1  0  0  0  0
 29 30  1  0  0  0  0
 29 46  1  0  0  0  0
M  END
> <PUBCHEM_COMPOUND_CID>
49830801

> <PUBCHEM_CONFORMER_RMSD>
0.8

> <PUBCHEM_CONFORMER_DIVERSEORDER>
2
18
35
33
46
93
21
80
40
3
91
1
68
49
73
23
16
60
54
65
26
72
57
64
5
95
41
44
69
4
83
9
11
62
14
42
45
32
7
86
51
87
79
39
77
19
75
48
58
88
43
78
8
67
12
25
53
38
28
20
70
50
74
36
66
56
82
81
89
55
52
10
94
31
22
34
90
6
63
13
59
15
30
76
92
47
37
61
84
29
27
24
17
85
71

> <PUBCHEM_MMFF94_PARTIAL_CHARGES>
36
1 -0.19
10 -0.34
11 0.28
12 0.18
13 0.01
14 -0.24
17 0.52
18 0.14
19 0.17
2 -0.19
20 0.25
21 -0.14
22 -0.11
23 0.05
24 -0.18
25 -0.07
26 0.19
27 -0.15
28 -0.15
29 -0.15
3 -0.68
30 0.19
39 0.15
4 -0.14
40 0.15
41 0.4
42 0.15
43 0.15
44 0.15
45 0.15
46 0.15
5 0.51
6 0.33
7 -0.65
8 -0.34
9 -0.57

> <PUBCHEM_EFFECTIVE_ROTOR_COUNT>
4

> <PUBCHEM_PHARMACOPHORE_FEATURES>
12
1 3 acceptor
1 3 donor
1 7 acceptor
3 11 15 16 hydrophobe
3 5 10 18 cation
3 5 8 13 cation
3 6 9 20 cation
5 4 6 20 24 25 rings
5 5 8 10 13 18 rings
5 6 9 14 19 20 rings
6 23 26 27 28 29 30 rings
6 5 7 17 18 21 22 rings

> <PUBCHEM_HEAVY_ATOM_COUNT>
30

> <PUBCHEM_ATOM_DEF_STEREO_COUNT>
0

> <PUBCHEM_ATOM_UDEF_STEREO_COUNT>
0

> <PUBCHEM_BOND_DEF_STEREO_COUNT>
0

> <PUBCHEM_BOND_UDEF_STEREO_COUNT>
0

> <PUBCHEM_ISOTOPIC_ATOM_COUNT>
0

> <PUBCHEM_COMPONENT_COUNT>
1

> <PUBCHEM_CACTVS_TAUTO_COUNT>
1

> <PUBCHEM_CONFORMER_ID>
02F85B9100000002

> <PUBCHEM_MMFF94_ENERGY>
92.4087

> <PUBCHEM_FEATURE_SELFOVERLAP>
63.889

> <PUBCHEM_SHAPE_FINGERPRINT>
10064457 181 18129670818959429313
10675989 125 16104739038461959455
10906281 52 18187650142099994581
1100329 8 17975679907869350151
11488393 25 17841156554634932110
12035758 1 18201438014018043682
12156800 1 17836958910764447406
12422481 6 18411143549428485330
12553582 1 17970938638158693571
131258 38 16230280017000116114
13140716 1 18265609879905480144
1361 2 18266437872818083573
138480 1 17188111411294065062
140371 6 18043249037682323349
14117953 113 18337393846447045055
14223421 5 18047750399425029253
14363568 33 17982181014907872439
14725015 67 17249773144893520257
14866123 147 18265872758296551458
15324884 4 18334856061387015820
15338160 23 17625251293196639336
17138139 8 17269146844327248133
19591789 44 18266445522049238198
1979834 28 18266203698247365561
20261772 1 18336546135449881664
21033648 29 18270099284772024176
21133410 32 16384018844055328939
21202864 24 18269552904785644536
21796203 349 17753644465063314769
23419403 2 17128497308449591286
23559900 14 17754180782082035444
469060 322 18045760523907232259
6004065 56 18336263557273237329
6287921 2 18056231070687705763
6438718 38 17914333730476627158
7226269 152 15097907500259437661
81228 2 17834924818975283120
9709674 26 17903067833569280565
9981440 41 18122316035405307513

> <PUBCHEM_SHAPE_MULTIPOLES>
561.21
8.2
5.18
1.9
0.78
4.28
-0.16
-4.71
-6.53
-1.28
2.61
-1.35
0.1
1.11

> <PUBCHEM_SHAPE_SELFOVERLAP>
1261.241

> <PUBCHEM_SHAPE_VOLUME>
299.7

> <PUBCHEM_COORDINATE_TYPE>
2
5
10

$$$$
