49830498
  -OEChem-10052115183D

 37 39  0     0  0  0  0  0  0999 V2000
    1.4381   -0.5171    0.0190 N   0  0  0  0  0  0  0  0  0  0  0  0
   -5.4392    2.2955    0.0309 N   0  0  0  0  0  0  0  0  0  0  0  0
    1.7344   -4.1189   -0.1073 N   0  0  0  0  0  0  0  0  0  0  0  0
    0.1076   -0.9936   -0.0157 C   0  0  0  0  0  0  0  0  0  0  0  0
    1.7605    0.8733    0.0737 C   0  0  0  0  0  0  0  0  0  0  0  0
   -2.2602   -0.5128   -0.0284 C   0  0  0  0  0  0  0  0  0  0  0  0
   -0.9378   -0.0702    0.0043 C   0  0  0  0  0  0  0  0  0  0  0  0
    3.2511    1.0697    0.0638 C   0  0  0  0  0  0  0  0  0  0  0  0
   -0.1697   -2.3598   -0.0683 C   0  0  0  0  0  0  0  0  0  0  0  0
   -3.3448    0.4446   -0.0081 C   0  0  0  0  0  0  0  0  0  0  0  0
   -2.5374   -1.8790   -0.0811 C   0  0  0  0  0  0  0  0  0  0  0  0
   -1.4921   -2.8023   -0.1013 C   0  0  0  0  0  0  0  0  0  0  0  0
    3.9574    1.1099    1.2659 C   0  0  0  0  0  0  0  0  0  0  0  0
    3.9277    1.2117   -1.1479 C   0  0  0  0  0  0  0  0  0  0  0  0
   -4.5653    0.1056    0.5655 C   0  0  0  0  0  0  0  0  0  0  0  0
   -3.1702    1.7080   -0.5620 C   0  0  0  0  0  0  0  0  0  0  0  0
    5.3404    1.2921    1.2566 C   0  0  0  0  0  0  0  0  0  0  0  0
    5.3107    1.3939   -1.1571 C   0  0  0  0  0  0  0  0  0  0  0  0
    6.0170    1.4339    0.0451 C   0  0  0  0  0  0  0  0  0  0  0  0
   -5.5715    1.0582    0.5595 C   0  0  0  0  0  0  0  0  0  0  0  0
   -4.2388    2.5889   -0.5175 C   0  0  0  0  0  0  0  0  0  0  0  0
    0.8821   -3.3314   -0.0898 C   0  0  0  0  0  0  0  0  0  0  0  0
    1.3520    1.3374    0.9809 H   0  0  0  0  0  0  0  0  0  0  0  0
    1.3347    1.4127   -0.7825 H   0  0  0  0  0  0  0  0  0  0  0  0
    2.1856   -1.2018    0.0105 H   0  0  0  0  0  0  0  0  0  0  0  0
   -0.7279    0.9912    0.0828 H   0  0  0  0  0  0  0  0  0  0  0  0
   -3.5502   -2.2685   -0.1375 H   0  0  0  0  0  0  0  0  0  0  0  0
   -1.7251   -3.8636   -0.1489 H   0  0  0  0  0  0  0  0  0  0  0  0
    3.4421    0.9986    2.2163 H   0  0  0  0  0  0  0  0  0  0  0  0
    3.3892    1.1801   -2.0914 H   0  0  0  0  0  0  0  0  0  0  0  0
   -4.7596   -0.8501    1.0397 H   0  0  0  0  0  0  0  0  0  0  0  0
   -2.2575    2.0279   -1.0527 H   0  0  0  0  0  0  0  0  0  0  0  0
    5.8904    1.3229    2.1926 H   0  0  0  0  0  0  0  0  0  0  0  0
    5.8377    1.5040   -2.1004 H   0  0  0  0  0  0  0  0  0  0  0  0
    7.0938    1.5753    0.0379 H   0  0  0  0  0  0  0  0  0  0  0  0
   -6.5400    0.8463    1.0004 H   0  0  0  0  0  0  0  0  0  0  0  0
   -4.1569    3.5839   -0.9427 H   0  0  0  0  0  0  0  0  0  0  0  0
  1  4  1  0  0  0  0
  1  5  1  0  0  0  0
  1 25  1  0  0  0  0
  2 20  2  0  0  0  0
  2 21  1  0  0  0  0
  3 22  3  0  0  0  0
  4  7  1  0  0  0  0
  4  9  2  0  0  0  0
  5  8  1  0  0  0  0
  5 23  1  0  0  0  0
  5 24  1  0  0  0  0
  6  7  2  0  0  0  0
  6 10  1  0  0  0  0
  6 11  1  0  0  0  0
  7 26  1  0  0  0  0
  8 13  2  0  0  0  0
  8 14  1  0  0  0  0
  9 12  1  0  0  0  0
  9 22  1  0  0  0  0
 10 15  2  0  0  0  0
 10 16  1  0  0  0  0
 11 12  2  0  0  0  0
 11 27  1  0  0  0  0
 12 28  1  0  0  0  0
 13 17  1  0  0  0  0
 13 29  1  0  0  0  0
 14 18  2  0  0  0  0
 14 30  1  0  0  0  0
 15 20  1  0  0  0  0
 15 31  1  0  0  0  0
 16 21  2  0  0  0  0
 16 32  1  0  0  0  0
 17 19  2  0  0  0  0
 17 33  1  0  0  0  0
 18 19  1  0  0  0  0
 18 34  1  0  0  0  0
 19 35  1  0  0  0  0
 20 36  1  0  0  0  0
 21 37  1  0  0  0  0
M  END
> <PUBCHEM_COMPOUND_CID>
49830498

> <PUBCHEM_CONFORMER_RMSD>
0.6

> <PUBCHEM_CONFORMER_DIVERSEORDER>
1
18
7
17
14
5
16
15
19
8
20
10
2
9
4
6
12
3
13
11

> <PUBCHEM_MMFF94_PARTIAL_CHARGES>
33
1 -0.87
11 -0.15
12 -0.15
13 -0.15
14 -0.15
15 -0.15
16 -0.15
17 -0.15
18 -0.15
19 -0.15
2 -0.62
20 0.16
21 0.16
22 0.48
25 0.4
26 0.15
27 0.15
28 0.15
29 0.15
3 -0.56
30 0.15
31 0.15
32 0.15
33 0.15
34 0.15
35 0.15
36 0.15
37 0.15
4 0.1
5 0.51
7 -0.15
8 -0.14
9 0.07

> <PUBCHEM_EFFECTIVE_ROTOR_COUNT>
4

> <PUBCHEM_PHARMACOPHORE_FEATURES>
7
1 1 cation
1 1 donor
1 2 acceptor
1 3 acceptor
6 2 10 15 16 20 21 rings
6 4 6 7 9 11 12 rings
6 8 13 14 17 18 19 rings

> <PUBCHEM_HEAVY_ATOM_COUNT>
22

> <PUBCHEM_ATOM_DEF_STEREO_COUNT>
0

> <PUBCHEM_ATOM_UDEF_STEREO_COUNT>
0

> <PUBCHEM_BOND_DEF_STEREO_COUNT>
0

> <PUBCHEM_BOND_UDEF_STEREO_COUNT>
0

> <PUBCHEM_ISOTOPIC_ATOM_COUNT>
0

> <PUBCHEM_COMPONENT_COUNT>
1

> <PUBCHEM_CACTVS_TAUTO_COUNT>
1

> <PUBCHEM_CONFORMER_ID>
02F85A6200000001

> <PUBCHEM_MMFF94_ENERGY>
75.9191

> <PUBCHEM_FEATURE_SELFOVERLAP>
35.522

> <PUBCHEM_SHAPE_FINGERPRINT>
10165383 225 18341618118386043977
10411042 1 17545884188511854347
105312 117 18412261756990878300
11552529 35 16517665903997022546
12107183 9 18262506015047482834
12236239 1 17821727277859897904
12293681 160 17847064363326970241
12390115 104 18343030990706091937
12422481 6 17749941159987884020
12516196 113 8935000365106622916
12596602 18 16588306115704238105
12788726 201 17538858279282296698
13540713 4 18263097535044904555
13540713 5 18270380717136574151
14341114 328 17240203244018572721
14466204 15 18410570708271265912
14713325 29 18262805206253229483
15042514 8 17832989725297121650
15230672 131 18408325480886645710
167882 2 18338798892767402278
17913733 40 18341910575414776387
18785283 64 18189896413921159886
20554085 129 18059555989090280002
20645477 56 18341053003267730921
21033648 29 18200303450629279248
21279426 13 18272662233965474470
212916 134 18341882035356697776
21756936 100 18341606057447554438
23366157 5 18115304466935108818
23559900 14 18055065467723520139
249999 5 18338235938466292386
25147074 1 18338497704012291183
283562 15 18195519522882010423
3298306 158 18272371983938113262
3411729 13 18261392191781827651
4280585 95 10159701261397264118
469060 322 18192733330583914795
495365 180 17489866042924637158
5104073 3 18189907405533346241
5265222 85 18193850455972823988
5385378 56 18340213985638056467
56616090 163 18413396427305458646
57124632 79 18265608797346783786
59755656 215 18341336587616625196
6327066 14 18335133185715031413
7226269 152 18131631210080744104
77188 2 17402331469015303782
7808743 9 18409166644743973217
79837 15 18189898788890732850
9862522 239 18188474835495966885
9981440 41 18408042931165700683

> <PUBCHEM_SHAPE_MULTIPOLES>
437.81
13.33
3.78
0.94
5.75
4.26
-0.05
-13.56
-1.04
-1.26
0.41
1.03
-0.39
0.23

> <PUBCHEM_SHAPE_SELFOVERLAP>
957.588

> <PUBCHEM_SHAPE_VOLUME>
233

> <PUBCHEM_COORDINATE_TYPE>
2
5
10

$$$$
