49830979
  -OEChem-10052120443D

 56 60  0     0  0  0  0  0  0999 V2000
   -9.5378    0.9028    0.1910 F   0  0  0  0  0  0  0  0  0  0  0  0
   -7.8156    1.1167    1.5190 F   0  0  0  0  0  0  0  0  0  0  0  0
   -8.1345    2.5457   -0.1365 F   0  0  0  0  0  0  0  0  0  0  0  0
   -1.8631   -0.9375   -1.6290 O   0  0  0  0  0  0  0  0  0  0  0  0
   -7.4953    0.4059   -0.6311 O   0  0  0  0  0  0  0  0  0  0  0  0
    3.3900   -2.4911   -0.0469 N   0  0  0  0  0  0  0  0  0  0  0  0
    0.0038   -1.4215   -0.3325 N   0  0  0  0  0  0  0  0  0  0  0  0
    4.0940    1.1977   -0.3391 N   0  0  0  0  0  0  0  0  0  0  0  0
    2.9183   -1.0746   -0.1309 C   0  0  0  0  0  0  0  0  0  0  0  0
    2.1383   -0.9111   -1.4626 C   0  0  0  0  0  0  0  0  0  0  0  0
    1.9501   -0.7627    1.0389 C   0  0  0  0  0  0  0  0  0  0  0  0
    4.1077   -0.1474   -0.0899 C   0  0  0  0  0  0  0  0  0  0  0  0
    0.8448   -1.7288   -1.4908 C   0  0  0  0  0  0  0  0  0  0  0  0
    0.6594   -1.5831    0.9711 C   0  0  0  0  0  0  0  0  0  0  0  0
    5.3972   -0.5050    0.2479 C   0  0  0  0  0  0  0  0  0  0  0  0
    4.4703   -2.7040    0.9351 C   0  0  0  0  0  0  0  0  0  0  0  0
    5.7443   -1.9108    0.5870 C   0  0  0  0  0  0  0  0  0  0  0  0
    6.2043    0.6627    0.1836 C   0  0  0  0  0  0  0  0  0  0  0  0
    5.3622    1.7162   -0.1860 C   0  0  0  0  0  0  0  0  0  0  0  0
   -1.3322   -1.0680   -0.5229 C   0  0  0  0  0  0  0  0  0  0  0  0
    7.5697    0.9326    0.4047 C   0  0  0  0  0  0  0  0  0  0  0  0
    5.8220    3.0286   -0.3438 C   0  0  0  0  0  0  0  0  0  0  0  0
   -2.1538   -0.8345    0.7198 C   0  0  0  0  0  0  0  0  0  0  0  0
    8.0422    2.2407    0.2493 C   0  0  0  0  0  0  0  0  0  0  0  0
    7.1800    3.2711   -0.1191 C   0  0  0  0  0  0  0  0  0  0  0  0
   -3.5696   -0.5053    0.3621 C   0  0  0  0  0  0  0  0  0  0  0  0
   -3.9480    0.8221    0.1605 C   0  0  0  0  0  0  0  0  0  0  0  0
   -4.5106   -1.5264    0.2300 C   0  0  0  0  0  0  0  0  0  0  0  0
   -5.2672    1.1284   -0.1730 C   0  0  0  0  0  0  0  0  0  0  0  0
   -5.8298   -1.2202   -0.1034 C   0  0  0  0  0  0  0  0  0  0  0  0
   -6.2082    0.1071   -0.3049 C   0  0  0  0  0  0  0  0  0  0  0  0
   -8.2327    1.2537    0.2424 C   0  0  0  0  0  0  0  0  0  0  0  0
    1.8729    0.1448   -1.6100 H   0  0  0  0  0  0  0  0  0  0  0  0
    2.7662   -1.1883   -2.3197 H   0  0  0  0  0  0  0  0  0  0  0  0
    2.4322   -0.9225    2.0109 H   0  0  0  0  0  0  0  0  0  0  0  0
    1.6794    0.3024    1.0118 H   0  0  0  0  0  0  0  0  0  0  0  0
    3.7353   -2.7795   -0.9633 H   0  0  0  0  0  0  0  0  0  0  0  0
    0.3079   -1.5268   -2.4234 H   0  0  0  0  0  0  0  0  0  0  0  0
    1.0548   -2.8042   -1.4690 H   0  0  0  0  0  0  0  0  0  0  0  0
    0.8658   -2.6516    1.1012 H   0  0  0  0  0  0  0  0  0  0  0  0
    0.0092   -1.2841    1.7948 H   0  0  0  0  0  0  0  0  0  0  0  0
    4.1204   -2.4406    1.9400 H   0  0  0  0  0  0  0  0  0  0  0  0
    4.7114   -3.7725    0.9667 H   0  0  0  0  0  0  0  0  0  0  0  0
    6.2434   -2.3716   -0.2741 H   0  0  0  0  0  0  0  0  0  0  0  0
    6.4398   -1.9438    1.4328 H   0  0  0  0  0  0  0  0  0  0  0  0
    3.2786    1.7372   -0.5949 H   0  0  0  0  0  0  0  0  0  0  0  0
    8.2539    0.1397    0.6931 H   0  0  0  0  0  0  0  0  0  0  0  0
    5.1518    3.8322   -0.6303 H   0  0  0  0  0  0  0  0  0  0  0  0
   -2.1319   -1.7318    1.3493 H   0  0  0  0  0  0  0  0  0  0  0  0
   -1.7184   -0.0091    1.2951 H   0  0  0  0  0  0  0  0  0  0  0  0
    9.0944    2.4536    0.4187 H   0  0  0  0  0  0  0  0  0  0  0  0
    7.5681    4.2800   -0.2338 H   0  0  0  0  0  0  0  0  0  0  0  0
   -3.2235    1.6264    0.2569 H   0  0  0  0  0  0  0  0  0  0  0  0
   -4.2280   -2.5647    0.3825 H   0  0  0  0  0  0  0  0  0  0  0  0
   -5.5465    2.1658   -0.3345 H   0  0  0  0  0  0  0  0  0  0  0  0
   -6.5585   -2.0199   -0.2052 H   0  0  0  0  0  0  0  0  0  0  0  0
  1 32  1  0  0  0  0
  2 32  1  0  0  0  0
  3 32  1  0  0  0  0
  4 20  2  0  0  0  0
  5 31  1  0  0  0  0
  5 32  1  0  0  0  0
  6  9  1  0  0  0  0
  6 16  1  0  0  0  0
  6 37  1  0  0  0  0
  7 13  1  0  0  0  0
  7 14  1  0  0  0  0
  7 20  1  0  0  0  0
  8 12  1  0  0  0  0
  8 19  1  0  0  0  0
  8 46  1  0  0  0  0
  9 10  1  0  0  0  0
  9 11  1  0  0  0  0
  9 12  1  0  0  0  0
 10 13  1  0  0  0  0
 10 33  1  0  0  0  0
 10 34  1  0  0  0  0
 11 14  1  0  0  0  0
 11 35  1  0  0  0  0
 11 36  1  0  0  0  0
 12 15  2  0  0  0  0
 13 38  1  0  0  0  0
 13 39  1  0  0  0  0
 14 40  1  0  0  0  0
 14 41  1  0  0  0  0
 15 17  1  0  0  0  0
 15 18  1  0  0  0  0
 16 17  1  0  0  0  0
 16 42  1  0  0  0  0
 16 43  1  0  0  0  0
 17 44  1  0  0  0  0
 17 45  1  0  0  0  0
 18 19  1  0  0  0  0
 18 21  2  0  0  0  0
 19 22  2  0  0  0  0
 20 23  1  0  0  0  0
 21 24  1  0  0  0  0
 21 47  1  0  0  0  0
 22 25  1  0  0  0  0
 22 48  1  0  0  0  0
 23 26  1  0  0  0  0
 23 49  1  0  0  0  0
 23 50  1  0  0  0  0
 24 25  2  0  0  0  0
 24 51  1  0  0  0  0
 25 52  1  0  0  0  0
 26 27  2  0  0  0  0
 26 28  1  0  0  0  0
 27 29  1  0  0  0  0
 27 53  1  0  0  0  0
 28 30  2  0  0  0  0
 28 54  1  0  0  0  0
 29 31  2  0  0  0  0
 29 55  1  0  0  0  0
 30 31  1  0  0  0  0
 30 56  1  0  0  0  0
M  END
> <PUBCHEM_COMPOUND_CID>
49830979

> <PUBCHEM_CONFORMER_RMSD>
0.8

> <PUBCHEM_CONFORMER_DIVERSEORDER>
2
110
21
62
114
50
98
66
111
16
124
116
107
8
132
85
134
129
101
75
104
5
32
120
37
4
144
99
108
31
15
79
44
46
138
39
1
87
24
19
47
105
155
109
119
13
156
121
6
73
9
51
165
95
74
135
117
18
100
80
89
34
12
54
136
152
65
150
92
70
164
143
90
25
142
153
82
49
63
151
157
137
43
158
36
72
78
160
52
147
20
60
140
27
86
55
94
163
83
122
112
69
141
10
77
146
22
145
131
148
11
57
118
115
91
97
130
88
56
127
48
3
68
113
67
7
28
58
81
30
133
45
128
59
162
61
38
125
23
149
64
154
71
159
41
76
26
96
33
29
93
53
106
14
103
139
161
84
17
102
42
35
40
126
123

> <PUBCHEM_MMFF94_PARTIAL_CHARGES>
39
1 -0.34
12 -0.33
13 0.3
14 0.3
15 -0.18
16 0.27
17 0.18
19 -0.15
2 -0.34
20 0.57
21 -0.15
22 -0.15
23 0.2
24 -0.15
25 -0.15
26 -0.14
27 -0.15
28 -0.15
29 -0.15
3 -0.34
30 -0.15
31 0.08
32 1.3
37 0.36
4 -0.57
46 0.27
47 0.15
48 0.15
5 -0.36
51 0.15
52 0.15
53 0.15
54 0.15
55 0.15
56 0.15
6 -0.9
7 -0.66
8 0.03
9 0.45

> <PUBCHEM_EFFECTIVE_ROTOR_COUNT>
6.6

> <PUBCHEM_PHARMACOPHORE_FEATURES>
11
1 4 acceptor
1 5 acceptor
1 6 cation
1 6 donor
1 8 cation
1 8 donor
5 8 12 15 18 19 rings
6 18 19 21 22 24 25 rings
6 26 27 28 29 30 31 rings
6 6 9 12 15 16 17 rings
6 7 9 10 11 13 14 rings

> <PUBCHEM_HEAVY_ATOM_COUNT>
32

> <PUBCHEM_ATOM_DEF_STEREO_COUNT>
0

> <PUBCHEM_ATOM_UDEF_STEREO_COUNT>
0

> <PUBCHEM_BOND_DEF_STEREO_COUNT>
0

> <PUBCHEM_BOND_UDEF_STEREO_COUNT>
0

> <PUBCHEM_ISOTOPIC_ATOM_COUNT>
0

> <PUBCHEM_COMPONENT_COUNT>
1

> <PUBCHEM_CACTVS_TAUTO_COUNT>
1

> <PUBCHEM_CONFORMER_ID>
02F85C4300000002

> <PUBCHEM_MMFF94_ENERGY>
75.7854

> <PUBCHEM_FEATURE_SELFOVERLAP>
55.998

> <PUBCHEM_SHAPE_FINGERPRINT>
10 15 17966969426314123833
10006869 2 18342171160034548956
10411042 1 17976536119351149042
10554248 39 17917143901407832406
10670039 82 16486988284273755466
10673678 19 18342461482575161598
10693767 8 11023569977569072596
10835480 77 18335137613651837211
11181472 205 18128825148757722115
11578821 258 18411698743595226965
11607047 74 11166494428679982259
11991303 11 17274816999558272359
125118 31 18411419505340727585
12522641 126 15697731298177591006
12522641 24 17895468116915635218
12539765 74 18273220776423231006
13248334 5 18196938768855210446
13383665 225 16557927649285373625
13540713 4 15504316173403019150
13540713 5 15768115392442645898
13668630 136 10952053346765612095
13673619 4 9295292733163730987
13685833 64 9511464424539989758
13740195 50 18259992583580942595
13911987 19 17489593376572643479
14118638 360 15841280251135657643
14251757 52 18411981364398647608
14347424 109 18261106336418730794
14394314 77 18410576210557297781
14849402 71 18411701023868946097
150020 25 12967127220759964485
15131766 46 18197771301304820300
15183329 4 17346601884641919481
15276724 80 18337387150123629349
15392192 104 15864083082707944434
15419008 145 18187912947418150904
15475509 35 16009571497142006442
1577012 14 18413384354242196863
15840311 113 18409451371490741382
16087824 20 18336265730896662228
16728433 110 18334577920518125921
16989713 51 16987705983170312503
17686467 74 18187083988780607357
18335252 114 17988927786666497948
19302320 297 18041559248036344548
20105231 36 13758353397889972853
20157964 124 18410012118163155066
20691028 202 17975133464325268372
20771845 171 17560525010490051326
21033648 29 17458068196271184074
21130935 74 18114183029852793147
21298829 104 18410294743616387013
21344244 181 11671780485712144860
21641784 216 16702032954266539106
21792934 111 17458345209335861621
21792938 703 12750939084280470685
22122407 14 18340778125672238208
23524908 199 17703802401698260140
23569943 247 11167126612777799340
23576562 1 16772937255486963465
24771293 8 18040997396654619174
25269216 80 16414622912684256861
306946 40 17385991864161356205
33532 11 9079115557556528417
34797466 226 18201162057546528119
3525247 18 17266082664631573232
3711267 37 18060147564901307905
397830 11 18114754822964145523
406291 66 8430331125338864188
4073 2 18187649140913652747
4093350 32 18259983756479488178
4169191 19 18272373053870396385
444735 82 18334017189570172165
44555599 121 18343025450087867969
45377200 153 12031205352966270421
4625314 4 18342176665407519942
5718773 13 9223238441965806909
5937810 71 17775013341507572025
59682541 35 17894355488736700737
636775 72 18410012105795750389
99344 41 18408603694853829364

> <PUBCHEM_SHAPE_MULTIPOLES>
610.04
28.15
2.99
1.04
37.02
1.11
0.16
23.38
-3.7
-4.83
-0.11
0.19
-0.35
-0.96

> <PUBCHEM_SHAPE_SELFOVERLAP>
1342.29

> <PUBCHEM_SHAPE_VOLUME>
328.7

> <PUBCHEM_COORDINATE_TYPE>
2
5
10

$$$$
