49830633
  -OEChem-10062121553D

 26 28  0     0  0  0  0  0  0999 V2000
   -1.6562    0.3769    0.0550 N   0  0  0  0  0  0  0  0  0  0  0  0
   -0.2175   -1.3160   -0.1833 N   0  0  0  0  0  0  0  0  0  0  0  0
   -3.9970    0.2578    0.0413 N   0  0  0  0  0  0  0  0  0  0  0  0
   -2.9605    2.3509    0.3304 N   0  0  0  0  0  0  0  0  0  0  0  0
    0.4644   -0.1387   -0.0211 C   0  0  0  0  0  0  0  0  0  0  0  0
   -1.4896   -0.9826   -0.1339 C   0  0  0  0  0  0  0  0  0  0  0  0
   -0.3986    0.9219    0.1284 C   0  0  0  0  0  0  0  0  0  0  0  0
    1.8905   -0.0371   -0.0079 C   0  0  0  0  0  0  0  0  0  0  0  0
   -2.9186    0.9930    0.1422 C   0  0  0  0  0  0  0  0  0  0  0  0
   -2.6728   -1.7437   -0.2377 C   0  0  0  0  0  0  0  0  0  0  0  0
    2.5098    1.1302   -0.4548 C   0  0  0  0  0  0  0  0  0  0  0  0
    2.6624   -1.1042    0.4511 C   0  0  0  0  0  0  0  0  0  0  0  0
   -3.8439   -1.0973   -0.1468 C   0  0  0  0  0  0  0  0  0  0  0  0
    3.9011    1.2303   -0.4427 C   0  0  0  0  0  0  0  0  0  0  0  0
    4.0536   -1.0043    0.4633 C   0  0  0  0  0  0  0  0  0  0  0  0
    4.6729    0.1630    0.0163 C   0  0  0  0  0  0  0  0  0  0  0  0
   -0.2334    1.9793    0.2832 H   0  0  0  0  0  0  0  0  0  0  0  0
   -2.6248   -2.8157   -0.3865 H   0  0  0  0  0  0  0  0  0  0  0  0
    1.9399    1.9761   -0.8311 H   0  0  0  0  0  0  0  0  0  0  0  0
    2.2015   -2.0223    0.8077 H   0  0  0  0  0  0  0  0  0  0  0  0
   -4.7700   -1.6581   -0.2234 H   0  0  0  0  0  0  0  0  0  0  0  0
    4.3838    2.1378   -0.7934 H   0  0  0  0  0  0  0  0  0  0  0  0
    4.6548   -1.8349    0.8213 H   0  0  0  0  0  0  0  0  0  0  0  0
    5.7562    0.2405    0.0253 H   0  0  0  0  0  0  0  0  0  0  0  0
   -3.8513    2.8319    0.3981 H   0  0  0  0  0  0  0  0  0  0  0  0
   -2.1309    2.9278    0.4089 H   0  0  0  0  0  0  0  0  0  0  0  0
  1  6  1  0  0  0  0
  1  7  1  0  0  0  0
  1  9  1  0  0  0  0
  2  5  1  0  0  0  0
  2  6  2  0  0  0  0
  3  9  2  0  0  0  0
  3 13  1  0  0  0  0
  4  9  1  0  0  0  0
  4 25  1  0  0  0  0
  4 26  1  0  0  0  0
  5  7  2  0  0  0  0
  5  8  1  0  0  0  0
  6 10  1  0  0  0  0
  7 17  1  0  0  0  0
  8 11  2  0  0  0  0
  8 12  1  0  0  0  0
 10 13  2  0  0  0  0
 10 18  1  0  0  0  0
 11 14  1  0  0  0  0
 11 19  1  0  0  0  0
 12 15  2  0  0  0  0
 12 20  1  0  0  0  0
 13 21  1  0  0  0  0
 14 16  2  0  0  0  0
 14 22  1  0  0  0  0
 15 16  1  0  0  0  0
 15 23  1  0  0  0  0
 16 24  1  0  0  0  0
M  END
> <PUBCHEM_COMPOUND_CID>
49830633

> <PUBCHEM_CONFORMER_RMSD>
0.6

> <PUBCHEM_CONFORMER_DIVERSEORDER>
1
2

> <PUBCHEM_MMFF94_PARTIAL_CHARGES>
26
1 0.29
10 -0.11
11 -0.15
12 -0.15
13 0.02
14 -0.15
15 -0.15
16 -0.15
17 0.15
18 0.15
19 0.15
2 -0.57
20 0.15
21 0.15
22 0.15
23 0.15
24 0.15
25 0.4
26 0.4
3 -0.62
4 -0.85
5 0.17
6 0.14
7 -0.3
8 0.05
9 0.51

> <PUBCHEM_EFFECTIVE_ROTOR_COUNT>
1

> <PUBCHEM_PHARMACOPHORE_FEATURES>
5
1 4 donor
4 1 3 4 9 cation
5 1 2 5 6 7 rings
6 1 3 6 9 10 13 rings
6 8 11 12 14 15 16 rings

> <PUBCHEM_HEAVY_ATOM_COUNT>
16

> <PUBCHEM_ATOM_DEF_STEREO_COUNT>
0

> <PUBCHEM_ATOM_UDEF_STEREO_COUNT>
0

> <PUBCHEM_BOND_DEF_STEREO_COUNT>
0

> <PUBCHEM_BOND_UDEF_STEREO_COUNT>
0

> <PUBCHEM_ISOTOPIC_ATOM_COUNT>
0

> <PUBCHEM_COMPONENT_COUNT>
1

> <PUBCHEM_CACTVS_TAUTO_COUNT>
3

> <PUBCHEM_CONFORMER_ID>
02F85AE900000001

> <PUBCHEM_MMFF94_ENERGY>
41.5639

> <PUBCHEM_FEATURE_SELFOVERLAP>
25.491

> <PUBCHEM_SHAPE_FINGERPRINT>
10014705 185 18114176419834151621
10062212 137 18412255129888235619
10608611 8 18342172288993710888
10616163 171 18339926016719033278
12107183 9 17832138321292008210
12173636 292 18413101762484019765
12236239 1 18260265257172689330
12251169 10 18408322172595301862
12670546 56 18410848880438769872
13167823 11 18408321086169360874
13675066 3 18060132124899442722
13760787 19 18408887347510814918
14144814 61 18409729564764225866
14325111 11 18410293605518046996
15196674 1 18410011039508821396
15442244 35 18264487295866007050
15536298 74 18411136944306736766
15669948 3 18272082846381121831
17492 89 18410293596950172898
17804303 29 18272370910058840225
18186145 218 17676482852518577978
18522853 276 18411980282088059368
19050596 39 18408322198491751762
19422 9 18334857220985721042
200 152 18411132575760780231
20279233 1 16415480454360068342
20510252 161 18201443562424154697
20645477 70 18334290955476302910
21267235 1 18409175419604881882
2255824 54 17894351094874497282
2306618 200 18059864952258643977
23402539 116 18343575257725797183
23402655 69 18335420158259955948
23463225 33 18408884018858348046
23557571 272 18060148630158210988
23559900 14 18057889044054270774
3545911 37 18410294709482878180
42 15 18333731316852456874
4214541 1 18410292488874152724
474 4 17460038590112627708
4990 188 18201731634945359766
5104073 3 18409446986228840872
57096353 35 18336265764126714102
573450 72 18409439267808735922
633830 44 16950567657825737400
69090 78 18411415120158032286
77779 3 18409450288916324198
9709674 26 18411143541065975222

> <PUBCHEM_SHAPE_MULTIPOLES>
309.35
8.85
1.77
0.67
2.89
0.35
0
0.21
0.09
-1.02
0.05
0.16
0
-0.74

> <PUBCHEM_SHAPE_SELFOVERLAP>
692.622

> <PUBCHEM_SHAPE_VOLUME>
160.6

> <PUBCHEM_COORDINATE_TYPE>
2
5
10

$$$$
