6540027
  -OEChem-10052115143D

 48 52  0     0  0  0  0  0  0999 V2000
    6.0424   -1.4346    0.3505 S   0  0  0  0  0  0  0  0  0  0  0  0
   -2.7658    1.1309    0.3416 O   0  0  0  0  0  0  0  0  0  0  0  0
   -2.0003   -1.0347   -0.1205 N   0  0  0  0  0  0  0  0  0  0  0  0
    6.9406    1.0385    0.0357 N   0  0  0  0  0  0  0  0  0  0  0  0
    5.3840    2.8405   -0.3665 N   0  0  0  0  0  0  0  0  0  0  0  0
    3.0738    2.6165   -0.2947 N   0  0  0  0  0  0  0  0  0  0  0  0
   -4.2691   -0.6004   -0.1186 N   0  0  0  0  0  0  0  0  0  0  0  0
    2.4724   -3.0918   -0.4537 C   0  0  0  0  0  0  0  0  0  0  0  0
    3.6470   -0.5041    0.1147 C   0  0  0  0  0  0  0  0  0  0  0  0
    3.7626   -3.0447    0.3741 C   0  0  0  0  0  0  0  0  0  0  0  0
    1.5989   -1.8804   -0.1958 C   0  0  0  0  0  0  0  0  0  0  0  0
    2.1815   -0.6164    0.0724 C   0  0  0  0  0  0  0  0  0  0  0  0
    4.3652   -1.6793    0.2692 C   0  0  0  0  0  0  0  0  0  0  0  0
    4.5285    0.6303   -0.0321 C   0  0  0  0  0  0  0  0  0  0  0  0
    0.2047   -2.0082   -0.2658 C   0  0  0  0  0  0  0  0  0  0  0  0
    1.3418    0.4727    0.3310 C   0  0  0  0  0  0  0  0  0  0  0  0
    5.8588    0.2381    0.1011 C   0  0  0  0  0  0  0  0  0  0  0  0
   -0.6140   -0.9062   -0.0316 C   0  0  0  0  0  0  0  0  0  0  0  0
   -0.0469    0.3277    0.2748 C   0  0  0  0  0  0  0  0  0  0  0  0
    4.3336    1.9951   -0.2900 C   0  0  0  0  0  0  0  0  0  0  0  0
    6.6103    2.3176   -0.1961 C   0  0  0  0  0  0  0  0  0  0  0  0
   -2.9937   -0.0421    0.0637 C   0  0  0  0  0  0  0  0  0  0  0  0
   -5.5242    0.0459   -0.0248 C   0  0  0  0  0  0  0  0  0  0  0  0
   -6.6812   -0.6850   -0.2390 C   0  0  0  0  0  0  0  0  0  0  0  0
   -7.9184   -0.0477   -0.1451 C   0  0  0  0  0  0  0  0  0  0  0  0
   -5.5697    1.3961    0.2809 C   0  0  0  0  0  0  0  0  0  0  0  0
   -7.9813    1.3116    0.1619 C   0  0  0  0  0  0  0  0  0  0  0  0
   -6.8070    2.0335    0.3748 C   0  0  0  0  0  0  0  0  0  0  0  0
   -9.1745   -0.8195   -0.3720 C   0  0  0  0  0  0  0  0  0  0  0  0
    1.9329   -4.0161   -0.2157 H   0  0  0  0  0  0  0  0  0  0  0  0
    2.7116   -3.1143   -1.5248 H   0  0  0  0  0  0  0  0  0  0  0  0
    4.4499   -3.8233    0.0244 H   0  0  0  0  0  0  0  0  0  0  0  0
    3.5372   -3.2498    1.4284 H   0  0  0  0  0  0  0  0  0  0  0  0
   -0.2362   -2.9743   -0.5021 H   0  0  0  0  0  0  0  0  0  0  0  0
    1.6927    1.3750    0.8080 H   0  0  0  0  0  0  0  0  0  0  0  0
   -0.6154    1.2093    0.5363 H   0  0  0  0  0  0  0  0  0  0  0  0
   -2.3390   -1.9655   -0.3513 H   0  0  0  0  0  0  0  0  0  0  0  0
    7.4359    3.0176   -0.2576 H   0  0  0  0  0  0  0  0  0  0  0  0
    3.0861    3.6298   -0.3264 H   0  0  0  0  0  0  0  0  0  0  0  0
    2.3604    2.1761   -0.8613 H   0  0  0  0  0  0  0  0  0  0  0  0
   -4.3041   -1.5910   -0.3456 H   0  0  0  0  0  0  0  0  0  0  0  0
   -6.6307   -1.7449   -0.4760 H   0  0  0  0  0  0  0  0  0  0  0  0
   -4.7105    2.0247    0.4595 H   0  0  0  0  0  0  0  0  0  0  0  0
   -8.9391    1.8190    0.2398 H   0  0  0  0  0  0  0  0  0  0  0  0
   -6.8574    3.0918    0.6142 H   0  0  0  0  0  0  0  0  0  0  0  0
   -9.0185   -1.6206   -1.1024 H   0  0  0  0  0  0  0  0  0  0  0  0
   -9.5179   -1.2627    0.5680 H   0  0  0  0  0  0  0  0  0  0  0  0
   -9.9685   -0.1766   -0.7670 H   0  0  0  0  0  0  0  0  0  0  0  0
  1 13  1  0  0  0  0
  1 17  1  0  0  0  0
  2 22  2  0  0  0  0
  3 18  1  0  0  0  0
  3 22  1  0  0  0  0
  3 37  1  0  0  0  0
  4 17  2  0  0  0  0
  4 21  1  0  0  0  0
  5 20  1  0  0  0  0
  5 21  2  0  0  0  0
  6 20  1  0  0  0  0
  6 39  1  0  0  0  0
  6 40  1  0  0  0  0
  7 22  1  0  0  0  0
  7 23  1  0  0  0  0
  7 41  1  0  0  0  0
  8 10  1  0  0  0  0
  8 11  1  0  0  0  0
  8 30  1  0  0  0  0
  8 31  1  0  0  0  0
  9 12  1  0  0  0  0
  9 13  2  0  0  0  0
  9 14  1  0  0  0  0
 10 13  1  0  0  0  0
 10 32  1  0  0  0  0
 10 33  1  0  0  0  0
 11 12  2  0  0  0  0
 11 15  1  0  0  0  0
 12 16  1  0  0  0  0
 14 17  1  0  0  0  0
 14 20  2  0  0  0  0
 15 18  2  0  0  0  0
 15 34  1  0  0  0  0
 16 19  2  0  0  0  0
 16 35  1  0  0  0  0
 18 19  1  0  0  0  0
 19 36  1  0  0  0  0
 21 38  1  0  0  0  0
 23 24  1  0  0  0  0
 23 26  2  0  0  0  0
 24 25  2  0  0  0  0
 24 42  1  0  0  0  0
 25 27  1  0  0  0  0
 25 29  1  0  0  0  0
 26 28  1  0  0  0  0
 26 43  1  0  0  0  0
 27 28  2  0  0  0  0
 27 44  1  0  0  0  0
 28 45  1  0  0  0  0
 29 46  1  0  0  0  0
 29 47  1  0  0  0  0
 29 48  1  0  0  0  0
M  END
> <PUBCHEM_COMPOUND_CID>
6540027

> <PUBCHEM_CONFORMER_RMSD>
0.8

> <PUBCHEM_CONFORMER_DIVERSEORDER>
1
21
24
13
4
19
18
14
5
2
20
3
23
12
7
16
10
11
6
17
25
8
15
9
22

> <PUBCHEM_MMFF94_PARTIAL_CHARGES>
40
1 -0.08
10 0.18
11 -0.14
12 0.05
13 -0.14
15 -0.15
16 -0.15
17 0.3
18 0.12
19 -0.15
2 -0.57
20 0.41
21 0.47
22 0.69
23 0.12
24 -0.15
25 -0.14
26 -0.15
27 -0.15
28 -0.15
29 0.14
3 -0.55
34 0.15
35 0.15
36 0.15
37 0.37
38 0.15
39 0.4
4 -0.57
40 0.4
41 0.37
42 0.15
43 0.15
44 0.15
45 0.15
5 -0.62
6 -0.9
7 -0.55
8 0.14
9 -0.05

> <PUBCHEM_EFFECTIVE_ROTOR_COUNT>
4.4

> <PUBCHEM_PHARMACOPHORE_FEATURES>
12
1 2 acceptor
1 3 donor
1 4 acceptor
1 6 cation
1 6 donor
1 7 donor
3 4 5 21 cation
5 1 9 13 14 17 rings
6 11 12 15 16 18 19 rings
6 23 24 25 26 27 28 rings
6 4 5 14 17 20 21 rings
6 8 9 10 11 12 13 rings

> <PUBCHEM_HEAVY_ATOM_COUNT>
29

> <PUBCHEM_ATOM_DEF_STEREO_COUNT>
0

> <PUBCHEM_ATOM_UDEF_STEREO_COUNT>
0

> <PUBCHEM_BOND_DEF_STEREO_COUNT>
0

> <PUBCHEM_BOND_UDEF_STEREO_COUNT>
0

> <PUBCHEM_ISOTOPIC_ATOM_COUNT>
0

> <PUBCHEM_COMPONENT_COUNT>
1

> <PUBCHEM_CACTVS_TAUTO_COUNT>
12

> <PUBCHEM_CONFORMER_ID>
0063CAFB00000001

> <PUBCHEM_MMFF94_ENERGY>
104.3678

> <PUBCHEM_FEATURE_SELFOVERLAP>
61.109

> <PUBCHEM_SHAPE_FINGERPRINT>
10 15 17967813868318461171
10050765 1 18410576222967699263
10162869 55 18410565219640411911
10165383 225 18336546114603039516
10299344 5 18273213097833211327
10411042 1 17905607706253317714
10595046 47 18342458106730724249
10625338 86 16515398582045162836
10673678 19 18342462577406563834
10835480 77 18334858329451247923
11315181 36 18413388723500225457
11374522 174 17607821800619261596
11578080 2 13697307464069548196
11719270 70 18272930501153306790
125118 31 18410293575875749897
12925494 130 18265331883878419472
14142895 15 18338234968462592383
14170010 4 18187366527775090556
14251764 18 18344143688178859023
14429380 56 18336537270668869151
14849402 71 18341333370718457521
14933364 13 18409167701817455441
15183329 4 17632301172701076425
15419008 145 18188760631795820448
15419008 47 16950275205102900293
15439362 3 17911513522055001480
15475509 35 16226596383249908778
15510794 2 18041000657880326059
1577012 14 18343578568523278495
15840311 113 18408606963677097204
15890870 6 18410295852609330388
16087824 20 18408887348418670108
16120349 18 18409443696326167357
16989713 51 17130976737857860095
18335252 98 18410016563929105715
18608769 82 18338800130583049715
19427546 62 18409450306218318234
19611394 137 17970641890568390539
20157964 124 18410294700977566978
20721686 56 18333454244776744817
21033650 10 14979693065422802163
21049683 271 18201437008927151121
21150785 3 17989488537432841015
21315763 28 18410854331211275907
21344244 78 18192975051549250642
22149856 69 17417258628616852211
22224240 67 17894347787480862107
23522609 53 17845394210050689657
255183 451 17841721708165422702
335352 9 18410862054111211062
335507 130 18272087215101372767
34797466 226 18059862744170946903
350125 39 18412261718394486961
397830 11 17677065649742429273
4073 2 18187650236620761179
4098825 35 18336825304314218233
4169191 19 18410856547525423885
4325135 7 18343018896093984647
4340502 62 17240199928683602690
444735 82 18259989266542740349
44555599 121 18271532992316028697
45377200 153 15984817212381188055
4918590 53 18187376437150801353
6328613 192 18413671310018793513
67123 10 18410011053607182639
99344 41 18411136952295297653

> <PUBCHEM_SHAPE_MULTIPOLES>
569.88
25.27
2.99
0.67
46.67
0.01
-0.01
8.74
0.44
-5.15
0.22
-0.02
-0.03
-1.16

> <PUBCHEM_SHAPE_SELFOVERLAP>
1263.865

> <PUBCHEM_SHAPE_VOLUME>
305.2

> <PUBCHEM_COORDINATE_TYPE>
2
5
10

$$$$
