136027088
  -OEChem-10052120433D

 43 46  0     0  0  0  0  0  0999 V2000
    7.0749    1.3564    0.0907 Cl  0  0  0  0  0  0  0  0  0  0  0  0
   -1.6976    5.1692    0.1497 O   0  0  0  0  0  0  0  0  0  0  0  0
   -6.7714   -1.3657   -0.0903 O   0  0  0  0  0  0  0  0  0  0  0  0
   -0.4345   -2.4088   -0.0795 N   0  0  0  0  0  0  0  0  0  0  0  0
    2.1425   -0.1537    0.0106 N   0  0  0  0  0  0  0  0  0  0  0  0
    0.8920   -2.1935   -0.0635 N   0  0  0  0  0  0  0  0  0  0  0  0
   -0.2764   -0.2314   -0.0079 C   0  0  0  0  0  0  0  0  0  0  0  0
   -1.1788   -1.2662   -0.0477 C   0  0  0  0  0  0  0  0  0  0  0  0
    0.9823   -0.8615   -0.0198 C   0  0  0  0  0  0  0  0  0  0  0  0
   -0.6410    1.1568    0.0342 C   0  0  0  0  0  0  0  0  0  0  0  0
   -2.6216   -1.2908   -0.0582 C   0  0  0  0  0  0  0  0  0  0  0  0
   -1.4100    1.6451    1.0906 C   0  0  0  0  0  0  0  0  0  0  0  0
   -0.2273    2.0168   -0.9832 C   0  0  0  0  0  0  0  0  0  0  0  0
   -3.3226   -0.6648   -1.0891 C   0  0  0  0  0  0  0  0  0  0  0  0
   -3.3155   -1.9413    0.9622 C   0  0  0  0  0  0  0  0  0  0  0  0
    3.5402   -0.5144    0.0078 C   0  0  0  0  0  0  0  0  0  0  0  0
   -1.7653    2.9933    1.1296 C   0  0  0  0  0  0  0  0  0  0  0  0
   -0.5829    3.3649   -0.9443 C   0  0  0  0  0  0  0  0  0  0  0  0
   -4.7170   -0.6892   -1.0993 C   0  0  0  0  0  0  0  0  0  0  0  0
   -4.7100   -1.9656    0.9520 C   0  0  0  0  0  0  0  0  0  0  0  0
   -1.3519    3.8532    0.1121 C   0  0  0  0  0  0  0  0  0  0  0  0
   -5.4108   -1.3395   -0.0788 C   0  0  0  0  0  0  0  0  0  0  0  0
    4.5179    0.4796    0.0459 C   0  0  0  0  0  0  0  0  0  0  0  0
    3.9127   -1.8581   -0.0331 C   0  0  0  0  0  0  0  0  0  0  0  0
    5.8682    0.1301    0.0431 C   0  0  0  0  0  0  0  0  0  0  0  0
    5.2631   -2.2075   -0.0359 C   0  0  0  0  0  0  0  0  0  0  0  0
    6.2408   -1.2134    0.0022 C   0  0  0  0  0  0  0  0  0  0  0  0
   -0.7614   -3.3667   -0.1135 H   0  0  0  0  0  0  0  0  0  0  0  0
    2.0641    0.8618    0.0544 H   0  0  0  0  0  0  0  0  0  0  0  0
   -1.7352    0.9953    1.8996 H   0  0  0  0  0  0  0  0  0  0  0  0
    0.3677    1.6543   -1.8182 H   0  0  0  0  0  0  0  0  0  0  0  0
   -2.8005   -0.1584   -1.8974 H   0  0  0  0  0  0  0  0  0  0  0  0
   -2.7866   -2.4319    1.7761 H   0  0  0  0  0  0  0  0  0  0  0  0
   -2.3629    3.3619    1.9591 H   0  0  0  0  0  0  0  0  0  0  0  0
   -0.2588    4.0298   -1.7403 H   0  0  0  0  0  0  0  0  0  0  0  0
   -5.2513   -0.1992   -1.9089 H   0  0  0  0  0  0  0  0  0  0  0  0
   -5.2450   -2.4734    1.7498 H   0  0  0  0  0  0  0  0  0  0  0  0
    4.2272    1.5275    0.0777 H   0  0  0  0  0  0  0  0  0  0  0  0
    3.2016   -2.6730   -0.0637 H   0  0  0  0  0  0  0  0  0  0  0  0
    5.5541   -3.2535   -0.0677 H   0  0  0  0  0  0  0  0  0  0  0  0
    7.2892   -1.5006   -0.0005 H   0  0  0  0  0  0  0  0  0  0  0  0
   -2.2284    5.3326    0.9482 H   0  0  0  0  0  0  0  0  0  0  0  0
   -7.0892   -0.8852   -0.8740 H   0  0  0  0  0  0  0  0  0  0  0  0
  1 25  1  0  0  0  0
  2 21  1  0  0  0  0
  2 42  1  0  0  0  0
  3 22  1  0  0  0  0
  3 43  1  0  0  0  0
  4  6  1  0  0  0  0
  4  8  1  0  0  0  0
  4 28  1  0  0  0  0
  5  9  1  0  0  0  0
  5 16  1  0  0  0  0
  5 29  1  0  0  0  0
  6  9  2  0  0  0  0
  7  8  2  0  0  0  0
  7  9  1  0  0  0  0
  7 10  1  0  0  0  0
  8 11  1  0  0  0  0
 10 12  2  0  0  0  0
 10 13  1  0  0  0  0
 11 14  2  0  0  0  0
 11 15  1  0  0  0  0
 12 17  1  0  0  0  0
 12 30  1  0  0  0  0
 13 18  2  0  0  0  0
 13 31  1  0  0  0  0
 14 19  1  0  0  0  0
 14 32  1  0  0  0  0
 15 20  2  0  0  0  0
 15 33  1  0  0  0  0
 16 23  2  0  0  0  0
 16 24  1  0  0  0  0
 17 21  2  0  0  0  0
 17 34  1  0  0  0  0
 18 21  1  0  0  0  0
 18 35  1  0  0  0  0
 19 22  2  0  0  0  0
 19 36  1  0  0  0  0
 20 22  1  0  0  0  0
 20 37  1  0  0  0  0
 23 25  1  0  0  0  0
 23 38  1  0  0  0  0
 24 26  2  0  0  0  0
 24 39  1  0  0  0  0
 25 27  2  0  0  0  0
 26 27  1  0  0  0  0
 26 40  1  0  0  0  0
 27 41  1  0  0  0  0
M  END
> <PUBCHEM_COMPOUND_CID>
136027088

> <PUBCHEM_CONFORMER_RMSD>
0.8

> <PUBCHEM_CONFORMER_DIVERSEORDER>
1
21
18
8
11
3
23
15
2
14
7
17
10
9
5
6
16
25
4
20
22
13
12
24
19

> <PUBCHEM_MMFF94_PARTIAL_CHARGES>
43
1 -0.18
10 0.05
11 0.05
12 -0.15
13 -0.15
14 -0.15
15 -0.15
16 0.1
17 -0.15
18 -0.15
19 -0.15
2 -0.53
20 -0.15
21 0.08
22 0.08
23 -0.15
24 -0.15
25 0.18
26 -0.15
27 -0.15
28 0.27
29 0.4
3 -0.53
30 0.15
31 0.15
32 0.15
33 0.15
34 0.15
35 0.15
36 0.15
37 0.15
38 0.15
39 0.15
4 0.3
40 0.15
41 0.15
42 0.45
43 0.45
5 -0.58
6 -0.71
7 -0.05
8 -0.2
9 0.37

> <PUBCHEM_EFFECTIVE_ROTOR_COUNT>
4

> <PUBCHEM_PHARMACOPHORE_FEATURES>
9
1 2 donor
1 3 donor
1 4 donor
1 5 donor
3 5 6 9 cation
5 4 6 7 8 9 rings
6 10 12 13 17 18 21 rings
6 11 14 15 19 20 22 rings
6 16 23 24 25 26 27 rings

> <PUBCHEM_HEAVY_ATOM_COUNT>
27

> <PUBCHEM_ATOM_DEF_STEREO_COUNT>
0

> <PUBCHEM_ATOM_UDEF_STEREO_COUNT>
0

> <PUBCHEM_BOND_DEF_STEREO_COUNT>
0

> <PUBCHEM_BOND_UDEF_STEREO_COUNT>
0

> <PUBCHEM_ISOTOPIC_ATOM_COUNT>
0

> <PUBCHEM_COMPONENT_COUNT>
1

> <PUBCHEM_CACTVS_TAUTO_COUNT>
-1

> <PUBCHEM_CONFORMER_ID>
081B9BD000000001

> <PUBCHEM_MMFF94_ENERGY>
77.8525

> <PUBCHEM_FEATURE_SELFOVERLAP>
45.674

> <PUBCHEM_SHAPE_FINGERPRINT>
10050765 1 18194965128577094390
10411042 1 18410576223325511915
10670039 82 18336563642411573612
10930396 42 18122876941576080960
10940486 97 17844240959433546271
1100329 8 18192997242722179955
11045515 52 18260545653886002605
11101153 10 18409736183900173012
11578080 2 15481014245303021569
12166972 35 17894352210911893119
12516196 113 18410009978889821767
12788726 201 18334849494223583090
13004483 165 18411694404706482302
13073987 5 18338510843176748706
13383665 225 18265358161016078460
13911987 19 18262251030580332055
140371 6 18262250979204117846
14068700 686 18341898450864686414
14118638 360 18408604739575302666
14347332 77 18340200774783468518
14840074 17 17988924504599509918
14955137 171 18266463281554631171
15131766 46 15408897462431467370
15198563 99 18410291363709507197
15276724 80 18342458127504161444
15338160 23 17917722261735755160
15775530 1 17627248761625180535
15849732 13 17917711349009670311
16087824 20 18267022757724106793
17980427 23 17774459251706996577
1813 80 18200609076111616831
18336668 15 18187088369136060005
18681886 176 18269828891174784171
19427546 62 17474108700773672505
20238998 120 18413106186770547465
21049683 271 18188211030579103989
21236236 1 18342176618083115104
21641784 216 18336562550725476516
21792961 116 18187356598322898759
221357 26 18343302566200052850
23175994 123 18335984255222982639
23402539 116 18343298188811162271
23558518 356 18045231448472196626
23559900 14 18266453385960102048
23845131 108 17616538359125526521
24771750 20 17612040673251099540
266924 87 18267298742582217231
283562 15 18336826394681900139
3178227 256 18263657306928391875
350125 39 18341895182362659312
3886686 26 17253679726455095818
3918712 181 17903923606838218148
469060 322 18261401013576224665
5104073 3 18339917105605575194
5171179 24 17773856731967351865
5969126 39 18341887472352764805
6004065 56 18266737068429456315

> <PUBCHEM_SHAPE_MULTIPOLES>
530.84
14.39
4.42
0.94
14.92
6.77
0.01
-8.26
0.01
-3.07
0.33
-0.84
0.23
0.06

> <PUBCHEM_SHAPE_SELFOVERLAP>
1173.183

> <PUBCHEM_SHAPE_VOLUME>
285.4

> <PUBCHEM_COORDINATE_TYPE>
2
5
10

$$$$
