672301
  -OEChem-10062121543D

 43 45  0     0  0  0  0  0  0999 V2000
    5.0048   -2.7698    0.1667 O   0  0  0  0  0  0  0  0  0  0  0  0
   -1.3800    0.4276   -0.9029 O   0  0  0  0  0  0  0  0  0  0  0  0
    3.0691   -0.7327    0.1215 N   0  0  0  0  0  0  0  0  0  0  0  0
    0.8010   -0.1686   -0.4049 N   0  0  0  0  0  0  0  0  0  0  0  0
    0.0620    2.1205   -0.2585 N   0  0  0  0  0  0  0  0  0  0  0  0
    1.5909    3.8185    0.4107 N   0  0  0  0  0  0  0  0  0  0  0  0
   -4.4549    0.4434   -0.5678 N   0  0  0  0  0  0  0  0  0  0  0  0
    2.8794    4.2737    0.5338 N   0  0  0  0  0  0  0  0  0  0  0  0
    2.6950   -2.1048    0.4910 C   0  0  0  0  0  0  0  0  0  0  0  0
    4.2885   -0.6138   -0.6853 C   0  0  0  0  0  0  0  0  0  0  0  0
    3.9039   -2.8283    1.0734 C   0  0  0  0  0  0  0  0  0  0  0  0
    5.4126   -1.4181   -0.0415 C   0  0  0  0  0  0  0  0  0  0  0  0
    2.0507    0.2170   -0.0095 C   0  0  0  0  0  0  0  0  0  0  0  0
    2.3406    1.5536    0.2710 C   0  0  0  0  0  0  0  0  0  0  0  0
    1.3091    2.4593    0.1291 C   0  0  0  0  0  0  0  0  0  0  0  0
   -0.1196    0.8091   -0.5055 C   0  0  0  0  0  0  0  0  0  0  0  0
   -1.5720   -0.9553   -1.1637 C   0  0  0  0  0  0  0  0  0  0  0  0
   -3.0110   -1.2021   -1.6032 C   0  0  0  0  0  0  0  0  0  0  0  0
   -4.0097   -0.8247   -0.5361 C   0  0  0  0  0  0  0  0  0  0  0  0
   -4.3920   -1.7798    0.3799 C   0  0  0  0  0  0  0  0  0  0  0  0
   -5.3133   -1.4004    1.3497 C   0  0  0  0  0  0  0  0  0  0  0  0
   -5.3491    0.7757    0.3902 C   0  0  0  0  0  0  0  0  0  0  0  0
   -5.8059   -0.1000    1.3618 C   0  0  0  0  0  0  0  0  0  0  0  0
    2.3421   -2.6299   -0.4052 H   0  0  0  0  0  0  0  0  0  0  0  0
    1.8878   -2.1075    1.2331 H   0  0  0  0  0  0  0  0  0  0  0  0
    4.6130    0.4269   -0.7909 H   0  0  0  0  0  0  0  0  0  0  0  0
    4.0805   -1.0037   -1.6894 H   0  0  0  0  0  0  0  0  0  0  0  0
    4.2020   -2.3968    2.0368 H   0  0  0  0  0  0  0  0  0  0  0  0
    3.6624   -3.8824    1.2427 H   0  0  0  0  0  0  0  0  0  0  0  0
    6.2876   -1.4284   -0.6990 H   0  0  0  0  0  0  0  0  0  0  0  0
    5.7209   -0.9787    0.9150 H   0  0  0  0  0  0  0  0  0  0  0  0
    3.3338    1.8321    0.6056 H   0  0  0  0  0  0  0  0  0  0  0  0
   -0.9033   -1.2785   -1.9714 H   0  0  0  0  0  0  0  0  0  0  0  0
   -1.3562   -1.5421   -0.2614 H   0  0  0  0  0  0  0  0  0  0  0  0
   -3.2255   -0.6030   -2.4975 H   0  0  0  0  0  0  0  0  0  0  0  0
   -3.1437   -2.2525   -1.8886 H   0  0  0  0  0  0  0  0  0  0  0  0
    0.8408    4.4850    0.2724 H   0  0  0  0  0  0  0  0  0  0  0  0
   -3.9990   -2.7900    0.3610 H   0  0  0  0  0  0  0  0  0  0  0  0
   -5.6464   -2.1163    2.0950 H   0  0  0  0  0  0  0  0  0  0  0  0
   -5.7021    1.8011    0.3564 H   0  0  0  0  0  0  0  0  0  0  0  0
    2.8756    5.1070    1.1203 H   0  0  0  0  0  0  0  0  0  0  0  0
    3.2081    4.5765   -0.3822 H   0  0  0  0  0  0  0  0  0  0  0  0
   -6.5244    0.2179    2.1086 H   0  0  0  0  0  0  0  0  0  0  0  0
  1 11  1  0  0  0  0
  1 12  1  0  0  0  0
  2 16  1  0  0  0  0
  2 17  1  0  0  0  0
  3  9  1  0  0  0  0
  3 10  1  0  0  0  0
  3 13  1  0  0  0  0
  4 13  2  0  0  0  0
  4 16  1  0  0  0  0
  5 15  1  0  0  0  0
  5 16  2  0  0  0  0
  6  8  1  0  0  0  0
  6 15  1  0  0  0  0
  6 37  1  0  0  0  0
  7 19  1  0  0  0  0
  7 22  2  0  0  0  0
  8 41  1  0  0  0  0
  8 42  1  0  0  0  0
  9 11  1  0  0  0  0
  9 24  1  0  0  0  0
  9 25  1  0  0  0  0
 10 12  1  0  0  0  0
 10 26  1  0  0  0  0
 10 27  1  0  0  0  0
 11 28  1  0  0  0  0
 11 29  1  0  0  0  0
 12 30  1  0  0  0  0
 12 31  1  0  0  0  0
 13 14  1  0  0  0  0
 14 15  2  0  0  0  0
 14 32  1  0  0  0  0
 17 18  1  0  0  0  0
 17 33  1  0  0  0  0
 17 34  1  0  0  0  0
 18 19  1  0  0  0  0
 18 35  1  0  0  0  0
 18 36  1  0  0  0  0
 19 20  2  0  0  0  0
 20 21  1  0  0  0  0
 20 38  1  0  0  0  0
 21 23  2  0  0  0  0
 21 39  1  0  0  0  0
 22 23  1  0  0  0  0
 22 40  1  0  0  0  0
 23 43  1  0  0  0  0
M  END
> <PUBCHEM_COMPOUND_CID>
672301

> <PUBCHEM_CONFORMER_RMSD>
0.8

> <PUBCHEM_CONFORMER_DIVERSEORDER>
1
86
121
33
88
54
104
90
196
31
79
23
164
74
175
163
45
35
198
142
140
124
95
141
113
158
83
117
105
119
61
186
157
99
204
75
57
100
53
193
136
68
72
107
150
172
130
67
91
56
122
139
89
129
180
116
71
37
28
185
36
22
64
46
165
170
118
189
178
58
182
34
147
184
12
214
149
203
97
102
161
16
25
209
135
132
114
174
197
145
14
138
50
7
177
77
20
206
73
148
126
212
167
109
125
134
176
144
93
32
60
26
52
103
194
205
11
21
62
76
87
183
200
101
9
108
162
120
85
6
123
38
27
10
192
173
19
211
112
166
191
133
208
59
169
65
216
63
159
153
202
92
41
42
55
160
47
15
43
188
30
94
155
195
84
39
40
17
5
215
187
18
106
207
49
151
201
69
190
199
154
70
8
168
171
81
3
78
143
127
48
115
51
213
66
111
137
4
128
156
13
82
131
146
96
110
80
181
44
152
24
29
2
179
98
210

> <PUBCHEM_MMFF94_PARTIAL_CHARGES>
31
1 -0.56
10 0.37
11 0.28
12 0.28
13 0.41
14 -0.15
15 0.41
16 0.7
17 0.28
18 0.14
19 0.17
2 -0.36
20 -0.15
21 -0.15
22 0.16
23 -0.15
3 -0.84
32 0.15
37 0.4
38 0.15
39 0.15
4 -0.62
40 0.15
41 0.36
42 0.36
43 0.15
5 -0.62
6 -0.51
7 -0.62
8 -0.71
9 0.37

> <PUBCHEM_EFFECTIVE_ROTOR_COUNT>
7.2

> <PUBCHEM_PHARMACOPHORE_FEATURES>
9
1 1 acceptor
1 6 donor
1 7 acceptor
1 8 donor
3 3 4 13 cation
3 4 5 16 cation
6 1 3 9 10 11 12 rings
6 4 5 13 14 15 16 rings
6 7 19 20 21 22 23 rings

> <PUBCHEM_HEAVY_ATOM_COUNT>
23

> <PUBCHEM_ATOM_DEF_STEREO_COUNT>
0

> <PUBCHEM_ATOM_UDEF_STEREO_COUNT>
0

> <PUBCHEM_BOND_DEF_STEREO_COUNT>
0

> <PUBCHEM_BOND_UDEF_STEREO_COUNT>
0

> <PUBCHEM_ISOTOPIC_ATOM_COUNT>
0

> <PUBCHEM_COMPONENT_COUNT>
1

> <PUBCHEM_CACTVS_TAUTO_COUNT>
6

> <PUBCHEM_CONFORMER_ID>
000A422D00000001

> <PUBCHEM_MMFF94_ENERGY>
76.5364

> <PUBCHEM_FEATURE_SELFOVERLAP>
47.342

> <PUBCHEM_SHAPE_FINGERPRINT>
10074138 170 17619610407355783024
11265709 11 18340765940912991092
11370993 144 18334579079499568689
11405975 8 18341613754651505891
12107183 9 18270687468047724945
12553582 1 18340190909116826814
12596602 18 17703506679276343811
12633257 1 18201718457643278679
12788726 201 18118679912171878794
12892183 10 18192720158019261999
13103583 49 18341623590142672019
13402501 40 17821736022281860163
13533116 47 18264770038301707791
13540713 5 17845082064437633383
13590594 115 18340488876398942320
13673619 4 17967256373274491623
13955234 65 18267303312654241176
14251764 30 17676492726653906643
14341114 176 18335710468242785761
14420673 8 18262806164173523411
14466204 15 18198627631878729529
14739800 52 16915650600011698609
14790565 3 17761492891090446012
14950920 106 18268170784869306195
15042514 8 17980480066609512540
15475509 84 17917714556638435216
15527383 91 18408606950750133271
15537594 2 18411136931121863070
15664445 248 18201732743126011262
15842332 3 17629748222385663191
15927050 60 17980764058737713286
17492 89 18338236102270914667
17818456 19 17632582638876641337
17868525 174 18341327825509451097
1813 80 18270972262575213094
18785283 64 18117272764937494020
20832881 197 18334575702990681499
21049683 271 18188218688506228140
21065198 57 18337110163761749949
21065199 12 18262801908187311553
22849341 161 18272379650101159096
22950370 63 18334860489208147383
23559900 14 18409160022347456129
25147074 1 17774151461281047191
3117164 225 18413109459598086075
314194 84 18408599253810562470
3421961 26 18410009961725504168
458136 41 18120088652628341172
5104073 3 18201725110884944355
621550 5 17894909594450672404
79837 15 17044854920251020720
8863177 126 18115035211546297235
9841814 1 18413388739719946828

> <PUBCHEM_SHAPE_MULTIPOLES>
431.7
13.41
3.79
1.15
9.69
3.77
0.06
-8.14
-3.64
-5.98
-1.17
1.19
-0.41
-0.1

> <PUBCHEM_SHAPE_SELFOVERLAP>
910.06

> <PUBCHEM_SHAPE_VOLUME>
238.2

> <PUBCHEM_COORDINATE_TYPE>
2
5
10

$$$$
