49830614
  -OEChem-10052115183D

 50 53  0     0  0  0  0  0  0999 V2000
   -5.8404   -0.9714    1.8489 Cl  0  0  0  0  0  0  0  0  0  0  0  0
    2.1696   -4.8389   -0.7467 F   0  0  0  0  0  0  0  0  0  0  0  0
    5.2220   -0.6891    0.2375 O   0  0  0  0  0  0  0  0  0  0  0  0
    2.7958    1.7944   -0.3072 N   0  0  0  0  0  0  0  0  0  0  0  0
   -2.8333    0.9161    0.0263 N   0  0  0  0  0  0  0  0  0  0  0  0
    0.5829    1.0885   -0.3513 N   0  0  0  0  0  0  0  0  0  0  0  0
   -2.9540   -1.2302    0.6269 N   0  0  0  0  0  0  0  0  0  0  0  0
    1.5103    2.4061   -2.1433 N   0  0  0  0  0  0  0  0  0  0  0  0
   -5.3787    1.4533    1.0263 N   0  0  0  0  0  0  0  0  0  0  0  0
    4.5061    1.3233    1.4292 C   0  0  0  0  0  0  0  0  0  0  0  0
    3.0384    1.1557    0.9662 C   0  0  0  0  0  0  0  0  0  0  0  0
    5.5007    0.6921    0.4294 C   0  0  0  0  0  0  0  0  0  0  0  0
    4.6503    0.6278    2.7990 C   0  0  0  0  0  0  0  0  0  0  0  0
    4.8525    2.8137    1.6029 C   0  0  0  0  0  0  0  0  0  0  0  0
    1.5763    1.7615   -0.9627 C   0  0  0  0  0  0  0  0  0  0  0  0
   -1.6490    0.3566   -0.3604 C   0  0  0  0  0  0  0  0  0  0  0  0
   -0.5906    1.0767   -1.0171 C   0  0  0  0  0  0  0  0  0  0  0  0
   -1.7473   -0.9657    0.0204 C   0  0  0  0  0  0  0  0  0  0  0  0
   -3.5792   -0.0771    0.6124 C   0  0  0  0  0  0  0  0  0  0  0  0
   -0.7384   -1.9633   -0.1772 C   0  0  0  0  0  0  0  0  0  0  0  0
   -0.7884    1.6982   -2.2332 C   0  0  0  0  0  0  0  0  0  0  0  0
   -3.3477    2.1959   -0.0702 C   0  0  0  0  0  0  0  0  0  0  0  0
    0.3083    2.3541   -2.7540 C   0  0  0  0  0  0  0  0  0  0  0  0
   -4.8875    0.2470    1.1143 C   0  0  0  0  0  0  0  0  0  0  0  0
   -0.3086   -2.2746   -1.4671 C   0  0  0  0  0  0  0  0  0  0  0  0
   -0.1857   -2.6232    0.9204 C   0  0  0  0  0  0  0  0  0  0  0  0
   -4.5810    2.4189    0.4239 C   0  0  0  0  0  0  0  0  0  0  0  0
    0.6737   -3.2459   -1.6597 C   0  0  0  0  0  0  0  0  0  0  0  0
    0.7966   -3.5946    0.7280 C   0  0  0  0  0  0  0  0  0  0  0  0
    1.2263   -3.9060   -0.5620 C   0  0  0  0  0  0  0  0  0  0  0  0
    2.3679    1.5891    1.7199 H   0  0  0  0  0  0  0  0  0  0  0  0
    2.7930    0.0883    0.8944 H   0  0  0  0  0  0  0  0  0  0  0  0
    6.5275    0.7794    0.8030 H   0  0  0  0  0  0  0  0  0  0  0  0
    5.4598    1.1870   -0.5464 H   0  0  0  0  0  0  0  0  0  0  0  0
    5.6787    0.6969    3.1712 H   0  0  0  0  0  0  0  0  0  0  0  0
    3.9957    1.0899    3.5469 H   0  0  0  0  0  0  0  0  0  0  0  0
    4.3873   -0.4342    2.7415 H   0  0  0  0  0  0  0  0  0  0  0  0
    4.1457    3.3070    2.2796 H   0  0  0  0  0  0  0  0  0  0  0  0
    5.8559    2.9358    2.0270 H   0  0  0  0  0  0  0  0  0  0  0  0
    4.8368    3.3539    0.6507 H   0  0  0  0  0  0  0  0  0  0  0  0
    3.5396    2.3004   -0.7726 H   0  0  0  0  0  0  0  0  0  0  0  0
    5.8808   -1.0285   -0.3920 H   0  0  0  0  0  0  0  0  0  0  0  0
   -1.7325    1.6767   -2.7633 H   0  0  0  0  0  0  0  0  0  0  0  0
   -2.7524    2.9757   -0.5265 H   0  0  0  0  0  0  0  0  0  0  0  0
    0.2496    2.8701   -3.7064 H   0  0  0  0  0  0  0  0  0  0  0  0
   -0.7317   -1.7792   -2.3378 H   0  0  0  0  0  0  0  0  0  0  0  0
   -0.5077   -2.3913    1.9329 H   0  0  0  0  0  0  0  0  0  0  0  0
   -5.0155    3.4113    0.3685 H   0  0  0  0  0  0  0  0  0  0  0  0
    1.0075   -3.4899   -2.6639 H   0  0  0  0  0  0  0  0  0  0  0  0
    1.2277   -4.1082    1.5823 H   0  0  0  0  0  0  0  0  0  0  0  0
  1 24  1  0  0  0  0
  2 30  1  0  0  0  0
  3 12  1  0  0  0  0
  3 42  1  0  0  0  0
  4 11  1  0  0  0  0
  4 15  1  0  0  0  0
  4 41  1  0  0  0  0
  5 16  1  0  0  0  0
  5 19  1  0  0  0  0
  5 22  1  0  0  0  0
  6 15  1  0  0  0  0
  6 17  2  0  0  0  0
  7 18  1  0  0  0  0
  7 19  2  0  0  0  0
  8 15  2  0  0  0  0
  8 23  1  0  0  0  0
  9 24  2  0  0  0  0
  9 27  1  0  0  0  0
 10 11  1  0  0  0  0
 10 12  1  0  0  0  0
 10 13  1  0  0  0  0
 10 14  1  0  0  0  0
 11 31  1  0  0  0  0
 11 32  1  0  0  0  0
 12 33  1  0  0  0  0
 12 34  1  0  0  0  0
 13 35  1  0  0  0  0
 13 36  1  0  0  0  0
 13 37  1  0  0  0  0
 14 38  1  0  0  0  0
 14 39  1  0  0  0  0
 14 40  1  0  0  0  0
 16 17  1  0  0  0  0
 16 18  2  0  0  0  0
 17 21  1  0  0  0  0
 18 20  1  0  0  0  0
 19 24  1  0  0  0  0
 20 25  2  0  0  0  0
 20 26  1  0  0  0  0
 21 23  2  0  0  0  0
 21 43  1  0  0  0  0
 22 27  2  0  0  0  0
 22 44  1  0  0  0  0
 23 45  1  0  0  0  0
 25 28  1  0  0  0  0
 25 46  1  0  0  0  0
 26 29  2  0  0  0  0
 26 47  1  0  0  0  0
 27 48  1  0  0  0  0
 28 30  2  0  0  0  0
 28 49  1  0  0  0  0
 29 30  1  0  0  0  0
 29 50  1  0  0  0  0
M  END
> <PUBCHEM_COMPOUND_CID>
49830614

> <PUBCHEM_CONFORMER_RMSD>
0.8

> <PUBCHEM_CONFORMER_DIVERSEORDER>
1
75
39
86
45
27
129
119
98
66
94
55
7
116
41
155
169
96
148
147
133
56
3
4
152
164
146
126
114
173
115
128
26
144
150
123
110
134
17
118
49
103
143
50
81
60
91
28
79
117
99
76
8
174
14
83
159
139
51
175
156
69
161
131
68
72
132
58
73
141
151
87
166
80
23
85
121
78
111
171
112
37
158
172
168
145
33
127
162
22
135
165
2
106
104
59
154
19
48
125
167
74
105
84
52
113
120
108
130
20
101
24
92
64
93
163
107
102
88
89
32
137
153
6
63
46
140
13
15
44
136
67
25
35
16
109
176
5
149
54
47
30
170
57
157
43
71
40
142
38
42
160
18
138
95
82
70
34
97
12
29
100
122
21
61
53
124
36
62
31
9
90
77
10
11
65

> <PUBCHEM_MMFF94_PARTIAL_CHARGES>
37
1 -0.21
11 0.37
12 0.28
15 0.72
16 -0.2
17 0.36
18 0.17
19 0.1
2 -0.19
20 0.05
21 -0.15
22 -0.18
23 0.16
24 0.74
25 -0.15
26 -0.15
27 0.02
28 -0.15
29 -0.15
3 -0.68
30 0.19
4 -0.87
41 0.4
42 0.4
43 0.15
44 0.15
45 0.15
46 0.15
47 0.15
48 0.15
49 0.15
5 0.33
50 0.15
6 -0.62
7 -0.57
8 -0.62
9 -0.62

> <PUBCHEM_EFFECTIVE_ROTOR_COUNT>
6

> <PUBCHEM_PHARMACOPHORE_FEATURES>
12
1 3 acceptor
1 3 donor
1 4 donor
1 6 acceptor
1 9 acceptor
3 10 13 14 hydrophobe
3 5 7 19 cation
4 4 6 8 15 cation
5 5 7 16 18 19 rings
6 20 25 26 28 29 30 rings
6 5 9 19 22 24 27 rings
6 6 8 15 17 21 23 rings

> <PUBCHEM_HEAVY_ATOM_COUNT>
30

> <PUBCHEM_ATOM_DEF_STEREO_COUNT>
0

> <PUBCHEM_ATOM_UDEF_STEREO_COUNT>
0

> <PUBCHEM_BOND_DEF_STEREO_COUNT>
0

> <PUBCHEM_BOND_UDEF_STEREO_COUNT>
0

> <PUBCHEM_ISOTOPIC_ATOM_COUNT>
0

> <PUBCHEM_COMPONENT_COUNT>
1

> <PUBCHEM_CACTVS_TAUTO_COUNT>
3

> <PUBCHEM_CONFORMER_ID>
02F85AD600000001

> <PUBCHEM_MMFF94_ENERGY>
86.0767

> <PUBCHEM_FEATURE_SELFOVERLAP>
61.014

> <PUBCHEM_SHAPE_FINGERPRINT>
11370993 144 18200584921690752256
11552529 35 17691948772428158176
11582403 64 17131827672829367997
11607047 141 16841955645226026707
12422481 6 18261384503790192424
12553582 1 17604412124898043752
12633257 1 18199464548784580760
12741549 16 17051878647758284715
12788726 201 17472149843219407247
12839892 36 18264498441580615819
13004483 165 17050471749357443142
13140716 1 17835546065147580393
13402501 40 18337957771363394926
13583140 156 16628545050715757032
14020679 6 17630879598233747360
14739800 52 17559689343383137097
14840074 17 18040709312171879076
150020 26 17830703514959036722
15064986 96 18267011774194382570
15420108 30 18342166740006870903
15484559 13 16017968393796268540
15775530 1 17539391146809750741
16110190 28 18187359991573759872
16994733 274 15985117318635618203
17913733 40 18201449060346342715
1813 80 16877942741632021564
1979834 28 18336274482862722067
20554085 129 18202010932068235049
21033648 29 18130215060410174304
22182313 1 17752482062788163909
23419403 2 17903912258499478133
23559900 14 18117014186889945439
23728640 28 18123184877424788850
3411729 13 18340208466884577977
3493558 16 17626669293211526465
5171179 24 17761478202307055533
5265222 85 18339374075446923076
5385378 56 18270691857129911033
7064713 232 18338794623701473728

> <PUBCHEM_SHAPE_MULTIPOLES>
576.23
10.91
4.83
2.22
0.59
6.01
0.43
-6.9
-9.8
2.21
1.7
1.13
-1.02
1.25

> <PUBCHEM_SHAPE_SELFOVERLAP>
1253.943

> <PUBCHEM_SHAPE_VOLUME>
317.9

> <PUBCHEM_COORDINATE_TYPE>
2
5
10

$$$$
