11749082
  -OEChem-10062122003D

 48 51  0     0  0  0  0  0  0999 V2000
    6.8677    1.3461    0.7329 O   0  0  0  0  0  0  0  0  0  0  0  0
   -2.3305    0.6071   -0.8549 O   0  0  0  0  0  0  0  0  0  0  0  0
   -1.3708   -1.0098    0.5432 N   0  0  0  0  0  0  0  0  0  0  0  0
   -3.6621   -0.7170    0.5389 N   0  0  0  0  0  0  0  0  0  0  0  0
    5.9084    1.8671    1.5928 N   0  0  0  0  0  0  0  0  0  0  0  0
    3.5655    1.4790    1.8522 N   0  0  0  0  0  0  0  0  0  0  0  0
    4.1347   -0.5341   -0.5432 C   0  0  0  0  0  0  0  0  0  0  0  0
    4.9358    0.3478    0.1968 C   0  0  0  0  0  0  0  0  0  0  0  0
    2.7245   -0.6563   -0.2651 C   0  0  0  0  0  0  0  0  0  0  0  0
    6.2847    0.4399   -0.0988 C   0  0  0  0  0  0  0  0  0  0  0  0
    4.7426   -1.2882   -1.5571 C   0  0  0  0  0  0  0  0  0  0  0  0
    2.2710   -1.5957    0.6642 C   0  0  0  0  0  0  0  0  0  0  0  0
    1.8057    0.1644   -0.9239 C   0  0  0  0  0  0  0  0  0  0  0  0
    4.7664    1.2603    1.2560 C   0  0  0  0  0  0  0  0  0  0  0  0
   -0.0071   -0.8926    0.2733 C   0  0  0  0  0  0  0  0  0  0  0  0
    6.9205   -0.2921   -1.0974 C   0  0  0  0  0  0  0  0  0  0  0  0
    0.9075   -1.7136    0.9330 C   0  0  0  0  0  0  0  0  0  0  0  0
    0.4421    0.0465   -0.6551 C   0  0  0  0  0  0  0  0  0  0  0  0
    6.1099   -1.1677   -1.8272 C   0  0  0  0  0  0  0  0  0  0  0  0
   -4.9672   -0.2498    0.2558 C   0  0  0  0  0  0  0  0  0  0  0  0
   -6.4244    1.2229   -0.9537 C   0  0  0  0  0  0  0  0  0  0  0  0
   -7.3340   -0.3557    0.6327 C   0  0  0  0  0  0  0  0  0  0  0  0
   -6.0473   -0.8157    0.9128 C   0  0  0  0  0  0  0  0  0  0  0  0
   -5.1377    0.7630   -0.6737 C   0  0  0  0  0  0  0  0  0  0  0  0
   -7.5227    0.6636   -0.3005 C   0  0  0  0  0  0  0  0  0  0  0  0
   -2.4482   -0.2783   -0.0137 C   0  0  0  0  0  0  0  0  0  0  0  0
   -6.6265    2.3125   -1.9521 C   0  0  0  0  0  0  0  0  0  0  0  0
   -8.5085   -0.9534    1.3317 C   0  0  0  0  0  0  0  0  0  0  0  0
    4.1528   -1.9828   -2.1524 H   0  0  0  0  0  0  0  0  0  0  0  0
    2.9702   -2.2434    1.1882 H   0  0  0  0  0  0  0  0  0  0  0  0
    2.1399    0.9021   -1.6501 H   0  0  0  0  0  0  0  0  0  0  0  0
    7.9799   -0.1920   -1.2993 H   0  0  0  0  0  0  0  0  0  0  0  0
    0.5716   -2.4494    1.6593 H   0  0  0  0  0  0  0  0  0  0  0  0
   -0.2006    0.7181   -1.2060 H   0  0  0  0  0  0  0  0  0  0  0  0
    6.5519   -1.7662   -2.6201 H   0  0  0  0  0  0  0  0  0  0  0  0
   -5.8983   -1.6088    1.6413 H   0  0  0  0  0  0  0  0  0  0  0  0
   -4.3351    1.2385   -1.2173 H   0  0  0  0  0  0  0  0  0  0  0  0
   -8.5266    1.0209   -0.5174 H   0  0  0  0  0  0  0  0  0  0  0  0
   -1.6208   -1.7155    1.2315 H   0  0  0  0  0  0  0  0  0  0  0  0
   -3.6053   -1.4617    1.2291 H   0  0  0  0  0  0  0  0  0  0  0  0
   -6.5319    1.9143   -2.9674 H   0  0  0  0  0  0  0  0  0  0  0  0
   -7.6159    2.7718   -1.8541 H   0  0  0  0  0  0  0  0  0  0  0  0
   -5.8871    3.1082   -1.8118 H   0  0  0  0  0  0  0  0  0  0  0  0
   -8.3212   -1.9996    1.5965 H   0  0  0  0  0  0  0  0  0  0  0  0
   -8.7256   -0.3936    2.2468 H   0  0  0  0  0  0  0  0  0  0  0  0
   -9.3975   -0.9397    0.6920 H   0  0  0  0  0  0  0  0  0  0  0  0
    3.4716    2.1426    2.6152 H   0  0  0  0  0  0  0  0  0  0  0  0
    2.7024    1.0162    1.5945 H   0  0  0  0  0  0  0  0  0  0  0  0
  1  5  1  0  0  0  0
  1 10  1  0  0  0  0
  2 26  2  0  0  0  0
  3 15  1  0  0  0  0
  3 26  1  0  0  0  0
  3 39  1  0  0  0  0
  4 20  1  0  0  0  0
  4 26  1  0  0  0  0
  4 40  1  0  0  0  0
  5 14  2  0  0  0  0
  6 14  1  0  0  0  0
  6 47  1  0  0  0  0
  6 48  1  0  0  0  0
  7  8  2  0  0  0  0
  7  9  1  0  0  0  0
  7 11  1  0  0  0  0
  8 10  1  0  0  0  0
  8 14  1  0  0  0  0
  9 12  2  0  0  0  0
  9 13  1  0  0  0  0
 10 16  2  0  0  0  0
 11 19  2  0  0  0  0
 11 29  1  0  0  0  0
 12 17  1  0  0  0  0
 12 30  1  0  0  0  0
 13 18  2  0  0  0  0
 13 31  1  0  0  0  0
 15 17  2  0  0  0  0
 15 18  1  0  0  0  0
 16 19  1  0  0  0  0
 16 32  1  0  0  0  0
 17 33  1  0  0  0  0
 18 34  1  0  0  0  0
 19 35  1  0  0  0  0
 20 23  2  0  0  0  0
 20 24  1  0  0  0  0
 21 24  2  0  0  0  0
 21 25  1  0  0  0  0
 21 27  1  0  0  0  0
 22 23  1  0  0  0  0
 22 25  2  0  0  0  0
 22 28  1  0  0  0  0
 23 36  1  0  0  0  0
 24 37  1  0  0  0  0
 25 38  1  0  0  0  0
 27 41  1  0  0  0  0
 27 42  1  0  0  0  0
 27 43  1  0  0  0  0
 28 44  1  0  0  0  0
 28 45  1  0  0  0  0
 28 46  1  0  0  0  0
M  END
> <PUBCHEM_COMPOUND_CID>
11749082

> <PUBCHEM_CONFORMER_RMSD>
0.8

> <PUBCHEM_CONFORMER_DIVERSEORDER>
2
7
9
6
10
8
3
5
1
4

> <PUBCHEM_MMFF94_PARTIAL_CHARGES>
39
1 -0.02
10 0.14
11 -0.15
12 -0.15
13 -0.15
14 0.37
15 0.12
16 -0.15
17 -0.15
18 -0.15
19 -0.15
2 -0.57
20 0.12
21 -0.14
22 -0.14
23 -0.15
24 -0.15
25 -0.15
26 0.69
27 0.14
28 0.14
29 0.15
3 -0.55
30 0.15
31 0.15
32 0.15
33 0.15
34 0.15
35 0.15
36 0.15
37 0.15
38 0.15
39 0.37
4 -0.55
40 0.37
47 0.4
48 0.4
5 -0.41
6 -0.88

> <PUBCHEM_EFFECTIVE_ROTOR_COUNT>
5

> <PUBCHEM_PHARMACOPHORE_FEATURES>
9
1 2 acceptor
1 3 donor
1 4 donor
1 6 donor
3 5 6 14 cation
5 1 5 8 10 14 rings
6 20 21 22 23 24 25 rings
6 7 8 10 11 16 19 rings
6 9 12 13 15 17 18 rings

> <PUBCHEM_HEAVY_ATOM_COUNT>
28

> <PUBCHEM_ATOM_DEF_STEREO_COUNT>
0

> <PUBCHEM_ATOM_UDEF_STEREO_COUNT>
0

> <PUBCHEM_BOND_DEF_STEREO_COUNT>
0

> <PUBCHEM_BOND_UDEF_STEREO_COUNT>
0

> <PUBCHEM_ISOTOPIC_ATOM_COUNT>
0

> <PUBCHEM_COMPONENT_COUNT>
1

> <PUBCHEM_CACTVS_TAUTO_COUNT>
12

> <PUBCHEM_CONFORMER_ID>
00B346DA00000002

> <PUBCHEM_MMFF94_ENERGY>
86.1831

> <PUBCHEM_FEATURE_SELFOVERLAP>
45.819

> <PUBCHEM_SHAPE_FINGERPRINT>
10 15 17749391506952556472
10299344 5 15430037668981721625
10638233 991 16845572032667285009
10816530 90 18114471162545556588
11181472 205 17487627317239321105
11646440 116 18408890645887741633
11719270 70 17385441007701956698
12082328 90 17132116841036387447
12166972 35 15051727595080000019
12236239 1 15626508289605757966
12730499 353 18341614798297371518
13073987 5 17749387015250318875
13878862 14 17775271786510704464
14028597 1 15574703660854827669
14118638 360 17968094188919913523
14170010 4 18272654567079618048
14251764 18 15936412251769957775
14294032 229 17458341940180440855
14461889 52 17821733840475000963
14598715 104 18261377941587196181
14849402 71 15647349575069509997
14933364 13 18060422417296150195
15119646 104 14923939033500144888
15183329 4 12607409896925668627
15328684 2 16443332140681364745
15352257 5 10953464020342999705
15419008 47 18411134732278279953
1577012 14 16226048864707390085
18335252 114 17561359582611952000
19377110 9 15936404512096472189
20157964 124 17704075101523884902
20554085 129 18113333115916929594
21033648 29 18268420408167751434
21130935 74 17604143727864797659
21150785 3 17132109161233864133
21315759 40 15213023778138134387
21344244 78 15068607324187628548
21521721 280 17918276467098610395
220451 1 14908181928848085695
221357 26 17917994954152853680
22224240 67 17531247278952199459
22956985 138 16662873740807977314
23081809 10 15791734096587152927
23424782 7 18271807981886807991
23522609 53 15502959423440779743
23576562 1 14404322031709906433
24771293 8 18189891097268599668
249057 3 17632860837204866030
255183 451 15983441555841431366
34797466 226 17917997169997087166
3663271 9 14996286911904164001
397830 11 18198346349912063211
4073 2 18201439245919420054
4098825 35 17203336559294050793
4325135 7 15626229009030339929
44317340 157 17988922301523574198
5104073 3 17749948848469844249
5109719 28 18187937225760369153
5758199 1 18040438776587686931
58902169 19 16200428091464179524
9658208 31 18334579092121512866

> <PUBCHEM_SHAPE_MULTIPOLES>
544.56
26.11
1.7
1.55
25.91
0.43
-0.32
5.37
-1.28
2.83
0.06
-3.64
0.39
3.03

> <PUBCHEM_SHAPE_SELFOVERLAP>
1206.608

> <PUBCHEM_SHAPE_VOLUME>
294.5

> <PUBCHEM_COORDINATE_TYPE>
2
5
10

$$$$
