127757
  -OEChem-10052120443D

 62 67  0     1  0  0  0  0  0999 V2000
    0.0906   -3.0999    2.8468 O   0  0  0  0  0  0  0  0  0  0  0  0
    3.2056    0.2258    3.2855 O   0  0  0  0  0  0  0  0  0  0  0  0
   -2.2610   -1.3127   -0.6788 N   0  0  0  0  0  0  0  0  0  0  0  0
   -4.4380    2.5226   -0.2891 N   0  0  0  0  0  0  0  0  0  0  0  0
    1.7744   -1.5997    3.4022 N   0  0  0  0  0  0  0  0  0  0  0  0
    1.7065    2.9344   -0.1371 N   0  0  0  0  0  0  0  0  0  0  0  0
   -3.5920    0.6210    0.9661 C   0  0  2  0  0  0  0  0  0  0  0  0
   -2.3385   -0.0834    1.5103 C   0  0  0  0  0  0  0  0  0  0  0  0
   -4.4170   -0.3620    0.1219 C   0  0  0  0  0  0  0  0  0  0  0  0
   -1.6370   -0.8983    0.4734 C   0  0  0  0  0  0  0  0  0  0  0  0
   -3.6184   -0.9431   -1.0448 C   0  0  0  0  0  0  0  0  0  0  0  0
   -0.3520   -1.3978    0.4486 C   0  0  0  0  0  0  0  0  0  0  0  0
   -3.2361    1.8914    0.1877 C   0  0  0  0  0  0  0  0  0  0  0  0
   -1.3996   -2.0588   -1.4547 C   0  0  0  0  0  0  0  0  0  0  0  0
   -0.1880   -2.1292   -0.7598 C   0  0  0  0  0  0  0  0  0  0  0  0
    0.6257   -1.1954    1.4726 C   0  0  0  0  0  0  0  0  0  0  0  0
   -1.5768   -2.6721   -2.7043 C   0  0  0  0  0  0  0  0  0  0  0  0
    0.8851   -2.8448   -1.3284 C   0  0  0  0  0  0  0  0  0  0  0  0
    1.5336   -0.2114    1.6075 C   0  0  0  0  0  0  0  0  0  0  0  0
    0.7665   -2.1069    2.6368 C   0  0  0  0  0  0  0  0  0  0  0  0
   -0.4983   -3.3753   -3.2484 C   0  0  0  0  0  0  0  0  0  0  0  0
    1.8079    0.8980    0.7481 C   0  0  0  0  0  0  0  0  0  0  0  0
    0.7153   -3.4625   -2.5718 C   0  0  0  0  0  0  0  0  0  0  0  0
   -4.1351    3.7486   -1.0431 C   0  0  0  0  0  0  0  0  0  0  0  0
   -5.3511    2.8402    0.8193 C   0  0  0  0  0  0  0  0  0  0  0  0
    2.2935   -0.4621    2.8588 C   0  0  0  0  0  0  0  0  0  0  0  0
    2.7288    0.9616   -0.3375 C   0  0  0  0  0  0  0  0  0  0  0  0
    1.1954    2.1283    0.8444 C   0  0  0  0  0  0  0  0  0  0  0  0
    2.6451    2.2482   -0.8742 C   0  0  0  0  0  0  0  0  0  0  0  0
    3.6278    0.0431   -0.9149 C   0  0  0  0  0  0  0  0  0  0  0  0
    3.4187    2.6637   -1.9639 C   0  0  0  0  0  0  0  0  0  0  0  0
    1.3073    4.3083   -0.3535 C   0  0  0  0  0  0  0  0  0  0  0  0
    4.4078    0.4446   -2.0053 C   0  0  0  0  0  0  0  0  0  0  0  0
    4.3033    1.7354   -2.5202 C   0  0  0  0  0  0  0  0  0  0  0  0
   -4.1684    0.8854    1.8608 H   0  0  0  0  0  0  0  0  0  0  0  0
   -2.6353   -0.7620    2.3213 H   0  0  0  0  0  0  0  0  0  0  0  0
   -1.6557    0.6522    1.9510 H   0  0  0  0  0  0  0  0  0  0  0  0
   -5.3472    0.0784   -0.2517 H   0  0  0  0  0  0  0  0  0  0  0  0
   -4.7248   -1.1912    0.7742 H   0  0  0  0  0  0  0  0  0  0  0  0
   -4.1197   -1.8393   -1.4262 H   0  0  0  0  0  0  0  0  0  0  0  0
   -3.5361   -0.2171   -1.8613 H   0  0  0  0  0  0  0  0  0  0  0  0
   -2.5775    1.6491   -0.6551 H   0  0  0  0  0  0  0  0  0  0  0  0
   -2.6647    2.5671    0.8390 H   0  0  0  0  0  0  0  0  0  0  0  0
   -2.5191   -2.6085   -3.2386 H   0  0  0  0  0  0  0  0  0  0  0  0
    1.8390   -2.9220   -0.8144 H   0  0  0  0  0  0  0  0  0  0  0  0
   -0.6103   -3.8607   -4.2146 H   0  0  0  0  0  0  0  0  0  0  0  0
    1.5406   -4.0144   -3.0135 H   0  0  0  0  0  0  0  0  0  0  0  0
   -5.0511    4.1802   -1.4614 H   0  0  0  0  0  0  0  0  0  0  0  0
   -3.6459    4.5047   -0.4186 H   0  0  0  0  0  0  0  0  0  0  0  0
   -3.4792    3.5227   -1.8914 H   0  0  0  0  0  0  0  0  0  0  0  0
   -5.8376    1.9510    1.2306 H   0  0  0  0  0  0  0  0  0  0  0  0
   -4.8509    3.3886    1.6259 H   0  0  0  0  0  0  0  0  0  0  0  0
   -6.1787    3.4647    0.4599 H   0  0  0  0  0  0  0  0  0  0  0  0
    2.0972   -2.0163    4.2681 H   0  0  0  0  0  0  0  0  0  0  0  0
    0.4397    2.4926    1.5287 H   0  0  0  0  0  0  0  0  0  0  0  0
    3.7231   -0.9663   -0.5249 H   0  0  0  0  0  0  0  0  0  0  0  0
    3.3420    3.6669   -2.3695 H   0  0  0  0  0  0  0  0  0  0  0  0
    0.5417    4.5877    0.3748 H   0  0  0  0  0  0  0  0  0  0  0  0
    2.1862    4.9462   -0.2303 H   0  0  0  0  0  0  0  0  0  0  0  0
    0.9033    4.3946   -1.3654 H   0  0  0  0  0  0  0  0  0  0  0  0
    5.1030   -0.2596   -2.4546 H   0  0  0  0  0  0  0  0  0  0  0  0
    4.9187    2.0260   -3.3678 H   0  0  0  0  0  0  0  0  0  0  0  0
  1 20  2  0  0  0  0
  2 26  2  0  0  0  0
  3 10  1  0  0  0  0
  3 11  1  0  0  0  0
  3 14  1  0  0  0  0
  4 13  1  0  0  0  0
  4 24  1  0  0  0  0
  4 25  1  0  0  0  0
  5 20  1  0  0  0  0
  5 26  1  0  0  0  0
  5 54  1  0  0  0  0
  6 28  1  0  0  0  0
  6 29  1  0  0  0  0
  6 32  1  0  0  0  0
  7  8  1  0  0  0  0
  7  9  1  0  0  0  0
  7 13  1  0  0  0  0
  7 35  1  0  0  0  0
  8 10  1  0  0  0  0
  8 36  1  0  0  0  0
  8 37  1  0  0  0  0
  9 11  1  0  0  0  0
  9 38  1  0  0  0  0
  9 39  1  0  0  0  0
 10 12  2  0  0  0  0
 11 40  1  0  0  0  0
 11 41  1  0  0  0  0
 12 15  1  0  0  0  0
 12 16  1  0  0  0  0
 13 42  1  0  0  0  0
 13 43  1  0  0  0  0
 14 15  1  0  0  0  0
 14 17  2  0  0  0  0
 15 18  2  0  0  0  0
 16 19  2  0  0  0  0
 16 20  1  0  0  0  0
 17 21  1  0  0  0  0
 17 44  1  0  0  0  0
 18 23  1  0  0  0  0
 18 45  1  0  0  0  0
 19 22  1  0  0  0  0
 19 26  1  0  0  0  0
 21 23  2  0  0  0  0
 21 46  1  0  0  0  0
 22 27  1  0  0  0  0
 22 28  2  0  0  0  0
 23 47  1  0  0  0  0
 24 48  1  0  0  0  0
 24 49  1  0  0  0  0
 24 50  1  0  0  0  0
 25 51  1  0  0  0  0
 25 52  1  0  0  0  0
 25 53  1  0  0  0  0
 27 29  1  0  0  0  0
 27 30  2  0  0  0  0
 28 55  1  0  0  0  0
 29 31  2  0  0  0  0
 30 33  1  0  0  0  0
 30 56  1  0  0  0  0
 31 34  1  0  0  0  0
 31 57  1  0  0  0  0
 32 58  1  0  0  0  0
 32 59  1  0  0  0  0
 32 60  1  0  0  0  0
 33 34  2  0  0  0  0
 33 61  1  0  0  0  0
 34 62  1  0  0  0  0
M  END
> <PUBCHEM_COMPOUND_CID>
127757

> <PUBCHEM_CONFORMER_RMSD>
0.8

> <PUBCHEM_CONFORMER_DIVERSEORDER>
1
9
13
6
2
16
10
8
5
11
15
7
3
4
14
12

> <PUBCHEM_MMFF94_PARTIAL_CHARGES>
40
1 -0.57
10 -0.33
11 0.26
12 -0.05
13 0.27
14 -0.15
16 0.06
17 -0.15
18 -0.15
19 0.06
2 -0.57
20 0.62
21 -0.15
22 -0.05
23 -0.15
24 0.27
25 0.27
26 0.62
28 -0.3
29 -0.15
3 0.05
30 -0.15
31 -0.15
32 0.26
33 -0.15
34 -0.15
4 -0.81
44 0.15
45 0.15
46 0.15
47 0.15
5 -0.49
54 0.37
55 0.15
56 0.15
57 0.15
6 0.05
61 0.15
62 0.15
8 0.18

> <PUBCHEM_EFFECTIVE_ROTOR_COUNT>
5

> <PUBCHEM_PHARMACOPHORE_FEATURES>
12
1 1 acceptor
1 2 acceptor
1 3 cation
1 4 cation
1 5 donor
1 6 cation
5 3 10 12 14 15 rings
5 5 16 19 20 26 rings
5 6 22 27 28 29 rings
6 14 15 17 18 21 23 rings
6 27 29 30 31 33 34 rings
6 3 7 8 9 10 11 rings

> <PUBCHEM_HEAVY_ATOM_COUNT>
34

> <PUBCHEM_ATOM_DEF_STEREO_COUNT>
1

> <PUBCHEM_ATOM_UDEF_STEREO_COUNT>
0

> <PUBCHEM_BOND_DEF_STEREO_COUNT>
0

> <PUBCHEM_BOND_UDEF_STEREO_COUNT>
0

> <PUBCHEM_ISOTOPIC_ATOM_COUNT>
0

> <PUBCHEM_COMPONENT_COUNT>
1

> <PUBCHEM_CACTVS_TAUTO_COUNT>
3

> <PUBCHEM_CONFORMER_ID>
0001F30D00000001

> <PUBCHEM_MMFF94_ENERGY>
76.6165

> <PUBCHEM_FEATURE_SELFOVERLAP>
61.165

> <PUBCHEM_SHAPE_FINGERPRINT>
10165383 225 17559139699138067147
10483366 6 17911825491039979164
107951 10 17969809499129182428
11093857 51 17987796285531341461
11445158 3 16950269690412351338
12160290 23 17772177863721833555
12788726 201 17839438318560332415
13617811 41 17626648755374768927
13965767 371 17911485771795314155
14279260 333 18115043991176342500
14918310 93 15457949501518578184
15082195 135 18200585888248006133
15210252 30 17042063264633821637
17899979 19 17911817781985912550
17921350 177 17971746675525001413
19319366 153 17967819344534405256
20739085 24 17679561382091991434
20764821 26 17036696548395179453
21756936 100 18042416900842697240
21860390 5 17971740087213597091
21987440 362 17769923589896067168
22149856 69 17702941424244055489
23559900 14 17842273663006846383
26353 1 17049383843142517407
3027735 51 17127087558343426484
4066623 53 16610255314547777261
469060 322 16109536190250137790
46939830 39 15725302458498120724
5081480 168 17479766835165701461
513532 50 16987419916150686189
57527585 103 16600127231470437400
57527585 21 16605208096040155164
5895379 119 18056462070949972536
6523845 18 17704081698562016187

> <PUBCHEM_SHAPE_MULTIPOLES>
668.04
7.97
5.08
3.52
5.08
1.06
-2.03
8.45
2.89
1.77
3.54
-3.09
-2.91
-1.5

> <PUBCHEM_SHAPE_SELFOVERLAP>
1501.383

> <PUBCHEM_SHAPE_VOLUME>
356.5

> <PUBCHEM_COORDINATE_TYPE>
2
5
10

$$$$
