135524168
  -OEChem-10062122013D

 54 58  0     0  0  0  0  0  0999 V2000
    8.8837   -2.3672    1.5166 O   0  0  0  0  0  0  0  0  0  0  0  0
   -6.4598   -3.2760   -1.5132 O   0  0  0  0  0  0  0  0  0  0  0  0
    7.0644   -0.9862   -0.1817 N   0  0  0  0  0  0  0  0  0  0  0  0
   -5.7433    0.5695    0.8634 N   0  0  0  0  0  0  0  0  0  0  0  0
   -7.8657   -0.4946    1.2328 N   0  0  0  0  0  0  0  0  0  0  0  0
   -8.1119   -2.4936   -0.0704 N   0  0  0  0  0  0  0  0  0  0  0  0
   -1.2918    2.9629    0.2014 N   0  0  0  0  0  0  0  0  0  0  0  0
    8.1720   -1.7828   -0.7277 C   0  0  0  0  0  0  0  0  0  0  0  0
    7.4251   -0.4645    1.1439 C   0  0  0  0  0  0  0  0  0  0  0  0
    6.7117    0.1030   -1.0898 C   0  0  0  0  0  0  0  0  0  0  0  0
    8.5295   -2.9053    0.2422 C   0  0  0  0  0  0  0  0  0  0  0  0
    7.8012   -1.6178    2.0699 C   0  0  0  0  0  0  0  0  0  0  0  0
    5.3033    0.5860   -0.8659 C   0  0  0  0  0  0  0  0  0  0  0  0
    4.2256   -0.1630   -1.3382 C   0  0  0  0  0  0  0  0  0  0  0  0
    5.0766    1.7823   -0.1854 C   0  0  0  0  0  0  0  0  0  0  0  0
    2.6941    1.4806   -0.4492 C   0  0  0  0  0  0  0  0  0  0  0  0
    2.9210    0.2843   -1.1298 C   0  0  0  0  0  0  0  0  0  0  0  0
    3.7719    2.2297    0.0228 C   0  0  0  0  0  0  0  0  0  0  0  0
   -4.6215    0.3437    0.1022 C   0  0  0  0  0  0  0  0  0  0  0  0
   -6.0981   -1.2972   -0.2866 C   0  0  0  0  0  0  0  0  0  0  0  0
   -3.4880    1.2347    0.1361 C   0  0  0  0  0  0  0  0  0  0  0  0
   -6.6511   -0.4271    0.6329 C   0  0  0  0  0  0  0  0  0  0  0  0
   -4.8158   -0.8137   -0.6243 C   0  0  0  0  0  0  0  0  0  0  0  0
    1.3334    1.9476   -0.2331 C   0  0  0  0  0  0  0  0  0  0  0  0
   -2.2070    0.7447   -0.0933 C   0  0  0  0  0  0  0  0  0  0  0  0
   -1.1520    1.6419   -0.0499 C   0  0  0  0  0  0  0  0  0  0  0  0
    0.2246    1.1724   -0.2861 C   0  0  0  0  0  0  0  0  0  0  0  0
   -6.8653   -2.4495   -0.7046 C   0  0  0  0  0  0  0  0  0  0  0  0
   -3.6722    2.5878    0.3980 C   0  0  0  0  0  0  0  0  0  0  0  0
   -2.5517    3.4026    0.4194 C   0  0  0  0  0  0  0  0  0  0  0  0
   -8.5431   -1.5351    0.8478 C   0  0  0  0  0  0  0  0  0  0  0  0
    9.0514   -1.1466   -0.8926 H   0  0  0  0  0  0  0  0  0  0  0  0
    7.8870   -2.2264   -1.6887 H   0  0  0  0  0  0  0  0  0  0  0  0
    8.2742    0.2270    1.0648 H   0  0  0  0  0  0  0  0  0  0  0  0
    6.5878    0.0756    1.5978 H   0  0  0  0  0  0  0  0  0  0  0  0
    6.7584   -0.2404   -2.1332 H   0  0  0  0  0  0  0  0  0  0  0  0
    7.4287    0.9335   -1.0326 H   0  0  0  0  0  0  0  0  0  0  0  0
    7.7024   -3.6158    0.3617 H   0  0  0  0  0  0  0  0  0  0  0  0
    9.3928   -3.4629   -0.1350 H   0  0  0  0  0  0  0  0  0  0  0  0
    8.1287   -1.2266    3.0385 H   0  0  0  0  0  0  0  0  0  0  0  0
    6.9496   -2.2846    2.2522 H   0  0  0  0  0  0  0  0  0  0  0  0
    4.3903   -1.0943   -1.8739 H   0  0  0  0  0  0  0  0  0  0  0  0
    5.9073    2.3750    0.1883 H   0  0  0  0  0  0  0  0  0  0  0  0
    2.1166   -0.3217   -1.5357 H   0  0  0  0  0  0  0  0  0  0  0  0
    3.6149    3.1640    0.5565 H   0  0  0  0  0  0  0  0  0  0  0  0
   -4.1193   -1.2591   -1.3220 H   0  0  0  0  0  0  0  0  0  0  0  0
   -5.8824    1.3377    1.5055 H   0  0  0  0  0  0  0  0  0  0  0  0
    1.2394    3.0061   -0.0005 H   0  0  0  0  0  0  0  0  0  0  0  0
   -2.0309   -0.3084   -0.2933 H   0  0  0  0  0  0  0  0  0  0  0  0
    0.3026    0.1076   -0.4872 H   0  0  0  0  0  0  0  0  0  0  0  0
   -4.6494    3.0261    0.5714 H   0  0  0  0  0  0  0  0  0  0  0  0
   -8.7337   -3.2658   -0.2924 H   0  0  0  0  0  0  0  0  0  0  0  0
   -2.6414    4.4659    0.6158 H   0  0  0  0  0  0  0  0  0  0  0  0
   -9.5517   -1.7417    1.2381 H   0  0  0  0  0  0  0  0  0  0  0  0
  1 11  1  0  0  0  0
  1 12  1  0  0  0  0
  2 28  2  0  0  0  0
  3  8  1  0  0  0  0
  3  9  1  0  0  0  0
  3 10  1  0  0  0  0
  4 19  1  0  0  0  0
  4 22  1  0  0  0  0
  4 47  1  0  0  0  0
  5 22  1  0  0  0  0
  5 31  2  0  0  0  0
  6 28  1  0  0  0  0
  6 31  1  0  0  0  0
  6 52  1  0  0  0  0
  7 26  2  0  0  0  0
  7 30  1  0  0  0  0
  8 11  1  0  0  0  0
  8 32  1  0  0  0  0
  8 33  1  0  0  0  0
  9 12  1  0  0  0  0
  9 34  1  0  0  0  0
  9 35  1  0  0  0  0
 10 13  1  0  0  0  0
 10 36  1  0  0  0  0
 10 37  1  0  0  0  0
 11 38  1  0  0  0  0
 11 39  1  0  0  0  0
 12 40  1  0  0  0  0
 12 41  1  0  0  0  0
 13 14  2  0  0  0  0
 13 15  1  0  0  0  0
 14 17  1  0  0  0  0
 14 42  1  0  0  0  0
 15 18  2  0  0  0  0
 15 43  1  0  0  0  0
 16 17  2  0  0  0  0
 16 18  1  0  0  0  0
 16 24  1  0  0  0  0
 17 44  1  0  0  0  0
 18 45  1  0  0  0  0
 19 21  1  0  0  0  0
 19 23  2  0  0  0  0
 20 22  2  0  0  0  0
 20 23  1  0  0  0  0
 20 28  1  0  0  0  0
 21 25  2  0  0  0  0
 21 29  1  0  0  0  0
 23 46  1  0  0  0  0
 24 27  2  0  0  0  0
 24 48  1  0  0  0  0
 25 26  1  0  0  0  0
 25 49  1  0  0  0  0
 26 27  1  0  0  0  0
 27 50  1  0  0  0  0
 29 30  2  0  0  0  0
 29 51  1  0  0  0  0
 30 53  1  0  0  0  0
 31 54  1  0  0  0  0
M  END
> <PUBCHEM_COMPOUND_CID>
135524168

> <PUBCHEM_CONFORMER_RMSD>
0.8

> <PUBCHEM_CONFORMER_DIVERSEORDER>
1
70
85
6
97
24
69
101
52
73
99
78
94
75
88
27
62
36
65
67
33
56
49
48
9
30
11
47
90
2
86
19
12
77
25
71
46
80
17
22
13
53
60
93
96
4
66
91
74
26
72
35
57
23
3
32
38
63
104
16
44
81
7
34
42
103
59
54
98
76
50
15
8
37
92
20
64
5
61
82
58
87
40
43
102
68
41
10
55
18
14
28
83
84
51
79
39
89
29
21
95
100
45
31
105

> <PUBCHEM_MMFF94_PARTIAL_CHARGES>
44
1 -0.56
10 0.41
11 0.28
12 0.28
13 -0.14
14 -0.15
15 -0.15
16 0.03
17 -0.15
18 -0.15
19 -0.2
2 -0.57
20 -0.09
21 0.05
22 -0.03
23 -0.15
24 -0.18
25 -0.15
26 0.34
27 -0.18
28 0.72
29 -0.15
3 -0.81
30 0.16
31 0.45
4 0.03
42 0.15
43 0.15
44 0.15
45 0.15
46 0.15
47 0.27
48 0.15
49 0.15
5 -0.58
50 0.15
51 0.15
52 0.37
53 0.15
54 0.06
6 -0.49
7 -0.62
8 0.27
9 0.27

> <PUBCHEM_EFFECTIVE_ROTOR_COUNT>
6.2

> <PUBCHEM_PHARMACOPHORE_FEATURES>
12
1 1 acceptor
1 2 acceptor
1 3 cation
1 4 cation
1 4 donor
1 6 donor
1 7 acceptor
5 4 19 20 22 23 rings
6 1 3 8 9 11 12 rings
6 13 14 15 16 17 18 rings
6 5 6 20 22 28 31 rings
6 7 21 25 26 29 30 rings

> <PUBCHEM_HEAVY_ATOM_COUNT>
31

> <PUBCHEM_ATOM_DEF_STEREO_COUNT>
0

> <PUBCHEM_ATOM_UDEF_STEREO_COUNT>
0

> <PUBCHEM_BOND_DEF_STEREO_COUNT>
1

> <PUBCHEM_BOND_UDEF_STEREO_COUNT>
0

> <PUBCHEM_ISOTOPIC_ATOM_COUNT>
0

> <PUBCHEM_COMPONENT_COUNT>
1

> <PUBCHEM_CACTVS_TAUTO_COUNT>
-1

> <PUBCHEM_CONFORMER_ID>
0813EF4800000001

> <PUBCHEM_MMFF94_ENERGY>
77.2881

> <PUBCHEM_FEATURE_SELFOVERLAP>
61.02

> <PUBCHEM_SHAPE_FINGERPRINT>
10 15 11887957640265938189
10100884 174 18408603665290855226
10119406 146 17967819357851701179
10625338 86 13614250248164654027
11386260 185 15285648724476179566
11408170 132 7925637717968433312
11973863 73 18260554381824109297
11991303 11 15792021141841308235
125118 31 9871747993010584940
12539765 74 8070036583706973960
13008946 119 17770509630290784049
13248334 5 17979075217141693653
13383668 254 15267050420599157537
13627175 4 18187086160984520723
13692114 37 18334573564873168994
13782708 43 18410292489460163556
14251757 52 10664098952891844446
14428016 204 10952051164727086218
15064981 113 15068331303033230707
15064981 194 9222931700155598685
15198563 99 16805873053556792581
15347591 1 18410855443545684348
16126227 98 9655578508898895309
1754908 1 17060618906231868170
1818759 1 18187372025259577794
19841028 212 18411140276853582368
2026 5 18187362078653884378
20982279 24 17822591459729237459
21095123 293 11023832772815192707
21130935 74 18270681945025678576
21585483 132 18040707036108628114
21987483 16 18197775720213822595
22002106 203 17845079835730220463
22149856 69 17131568166979491744
22864921 47 18411691085013715694
23522609 53 18052576336744779185
23569943 247 18411141381456782347
23576562 1 13335604408907799851
25025965 108 18271515473192381383
25242607 90 18343298192952531448
255183 313 16630520747786848756
3383291 50 18410293601492917362
3504750 166 18412262827197948773
3711267 37 9943517549014309174
3986486 107 13118279240599436038
406291 66 18334856113026570530
42767 46 18186795873246874874
439807 62 18409735066396058773
44802255 64 13262688040939704625
4616759 239 17489594437798402979
4756088 132 17477197705562038263
5470011 282 17531534285920484852
5718773 13 18409729560706804340
57303763 39 18337669704525034418
5874358 3 17604132741754783186
5937810 71 11386369205554796583
6201320 221 16661747888182516250
6289498 60 11383841432797283134
9953998 17 16343701041275141647
9962374 69 18335139813355561692
9980921 7 11383828243674507849

> <PUBCHEM_SHAPE_MULTIPOLES>
601.32
32.61
3.63
1.25
12.77
0.16
-0.23
34.97
-7.01
-1.49
-0.12
1.6
0.68
-3.16

> <PUBCHEM_SHAPE_SELFOVERLAP>
1326.117

> <PUBCHEM_SHAPE_VOLUME>
319.7

> <PUBCHEM_COORDINATE_TYPE>
2
5
10

$$$$
