44414347
  -OEChem-10052120443D

 47 51  0     0  0  0  0  0  0999 V2000
   -7.0124    0.5339   -1.4761 S   0  0  0  0  0  0  0  0  0  0  0  0
    4.2090    0.4206    0.2675 N   0  0  0  0  0  0  0  0  0  0  0  0
    6.3739   -1.2644   -0.6450 N   0  0  0  0  0  0  0  0  0  0  0  0
   -2.0334   -1.4969    1.3947 N   0  0  0  0  0  0  0  0  0  0  0  0
   -3.3529   -1.6747    1.1275 N   0  0  0  0  0  0  0  0  0  0  0  0
    5.6051    0.7237    0.6056 C   0  0  0  0  0  0  0  0  0  0  0  0
    4.0273   -1.0254    0.0912 C   0  0  0  0  0  0  0  0  0  0  0  0
    3.3032    0.9366    1.2918 C   0  0  0  0  0  0  0  0  0  0  0  0
    6.5563    0.1813   -0.4668 C   0  0  0  0  0  0  0  0  0  0  0  0
    4.9776   -1.5674   -0.9820 C   0  0  0  0  0  0  0  0  0  0  0  0
   -0.3393    0.3280    0.6345 C   0  0  0  0  0  0  0  0  0  0  0  0
    1.8967    1.0821    0.7746 C   0  0  0  0  0  0  0  0  0  0  0  0
   -0.6793    1.4156   -0.2182 C   0  0  0  0  0  0  0  0  0  0  0  0
   -2.1580    1.4119   -0.6523 C   0  0  0  0  0  0  0  0  0  0  0  0
   -2.5642    0.1794    0.0794 C   0  0  0  0  0  0  0  0  0  0  0  0
   -1.5468   -0.4024    0.7824 C   0  0  0  0  0  0  0  0  0  0  0  0
    0.9288    0.1431    1.1377 C   0  0  0  0  0  0  0  0  0  0  0  0
    1.5803    2.1664   -0.0693 C   0  0  0  0  0  0  0  0  0  0  0  0
    0.2862    2.3408   -0.5728 C   0  0  0  0  0  0  0  0  0  0  0  0
   -3.6654   -0.6420    0.3216 C   0  0  0  0  0  0  0  0  0  0  0  0
    7.2789   -1.7792   -1.6708 C   0  0  0  0  0  0  0  0  0  0  0  0
   -4.9904   -0.4284   -0.2169 C   0  0  0  0  0  0  0  0  0  0  0  0
   -6.0818   -1.3004    0.0630 C   0  0  0  0  0  0  0  0  0  0  0  0
   -5.3576    0.6115   -1.0425 C   0  0  0  0  0  0  0  0  0  0  0  0
   -7.2417   -0.8937   -0.5589 C   0  0  0  0  0  0  0  0  0  0  0  0
    5.8706    0.3018    1.5846 H   0  0  0  0  0  0  0  0  0  0  0  0
    5.7462    1.8097    0.6681 H   0  0  0  0  0  0  0  0  0  0  0  0
    3.0064   -1.2518   -0.2354 H   0  0  0  0  0  0  0  0  0  0  0  0
    4.1959   -1.5619    1.0349 H   0  0  0  0  0  0  0  0  0  0  0  0
    3.6227    1.9383    1.6129 H   0  0  0  0  0  0  0  0  0  0  0  0
    3.3268    0.3238    2.2034 H   0  0  0  0  0  0  0  0  0  0  0  0
    6.3903    0.7164   -1.4118 H   0  0  0  0  0  0  0  0  0  0  0  0
    7.5860    0.3887   -0.1510 H   0  0  0  0  0  0  0  0  0  0  0  0
    4.8401   -2.6536   -1.0477 H   0  0  0  0  0  0  0  0  0  0  0  0
    4.7097   -1.1445   -1.9598 H   0  0  0  0  0  0  0  0  0  0  0  0
   -2.6705    2.3033   -0.2828 H   0  0  0  0  0  0  0  0  0  0  0  0
   -2.2414    1.2992   -1.7359 H   0  0  0  0  0  0  0  0  0  0  0  0
    1.1620   -0.6945    1.7857 H   0  0  0  0  0  0  0  0  0  0  0  0
    2.3490    2.8870   -0.3405 H   0  0  0  0  0  0  0  0  0  0  0  0
    0.0536    3.1784   -1.2210 H   0  0  0  0  0  0  0  0  0  0  0  0
    7.1714   -2.8651   -1.7682 H   0  0  0  0  0  0  0  0  0  0  0  0
    8.3218   -1.5905   -1.3927 H   0  0  0  0  0  0  0  0  0  0  0  0
    7.0960   -1.3252   -2.6514 H   0  0  0  0  0  0  0  0  0  0  0  0
   -1.5642   -2.1647    1.9948 H   0  0  0  0  0  0  0  0  0  0  0  0
   -6.0393   -2.1854    0.6861 H   0  0  0  0  0  0  0  0  0  0  0  0
   -4.7607    1.4247   -1.4275 H   0  0  0  0  0  0  0  0  0  0  0  0
   -8.2128   -1.3667   -0.5185 H   0  0  0  0  0  0  0  0  0  0  0  0
  1 24  1  0  0  0  0
  1 25  1  0  0  0  0
  2  6  1  0  0  0  0
  2  7  1  0  0  0  0
  2  8  1  0  0  0  0
  3  9  1  0  0  0  0
  3 10  1  0  0  0  0
  3 21  1  0  0  0  0
  4  5  1  0  0  0  0
  4 16  1  0  0  0  0
  4 44  1  0  0  0  0
  5 20  2  0  0  0  0
  6  9  1  0  0  0  0
  6 26  1  0  0  0  0
  6 27  1  0  0  0  0
  7 10  1  0  0  0  0
  7 28  1  0  0  0  0
  7 29  1  0  0  0  0
  8 12  1  0  0  0  0
  8 30  1  0  0  0  0
  8 31  1  0  0  0  0
  9 32  1  0  0  0  0
  9 33  1  0  0  0  0
 10 34  1  0  0  0  0
 10 35  1  0  0  0  0
 11 13  2  0  0  0  0
 11 16  1  0  0  0  0
 11 17  1  0  0  0  0
 12 17  2  0  0  0  0
 12 18  1  0  0  0  0
 13 14  1  0  0  0  0
 13 19  1  0  0  0  0
 14 15  1  0  0  0  0
 14 36  1  0  0  0  0
 14 37  1  0  0  0  0
 15 16  2  0  0  0  0
 15 20  1  0  0  0  0
 17 38  1  0  0  0  0
 18 19  2  0  0  0  0
 18 39  1  0  0  0  0
 19 40  1  0  0  0  0
 20 22  1  0  0  0  0
 21 41  1  0  0  0  0
 21 42  1  0  0  0  0
 21 43  1  0  0  0  0
 22 23  1  0  0  0  0
 22 24  2  0  0  0  0
 23 25  2  0  0  0  0
 23 45  1  0  0  0  0
 24 46  1  0  0  0  0
 25 47  1  0  0  0  0
M  END
> <PUBCHEM_COMPOUND_CID>
44414347

> <PUBCHEM_CONFORMER_RMSD>
0.8

> <PUBCHEM_CONFORMER_DIVERSEORDER>
1
16
24
10
8
20
25
23
18
21
11
15
22
3
19
4
6
17
14
5
9
12
2
13
7

> <PUBCHEM_MMFF94_PARTIAL_CHARGES>
31
1 -0.08
10 0.27
11 0.05
12 -0.14
13 -0.14
14 0.32
15 -0.18
16 -0.2
17 -0.15
18 -0.15
19 -0.15
2 -0.81
20 0.29
21 0.27
23 -0.15
24 -0.11
25 -0.11
3 -0.81
38 0.15
39 0.15
4 0.3
40 0.15
44 0.27
45 0.15
46 0.15
47 0.15
5 -0.71
6 0.27
7 0.27
8 0.41
9 0.27

> <PUBCHEM_EFFECTIVE_ROTOR_COUNT>
4.4

> <PUBCHEM_PHARMACOPHORE_FEATURES>
9
1 2 cation
1 3 cation
1 4 donor
1 5 acceptor
5 1 22 23 24 25 rings
5 11 13 14 15 16 rings
5 4 5 15 16 20 rings
6 11 12 13 17 18 19 rings
6 2 3 6 7 9 10 rings

> <PUBCHEM_HEAVY_ATOM_COUNT>
25

> <PUBCHEM_ATOM_DEF_STEREO_COUNT>
0

> <PUBCHEM_ATOM_UDEF_STEREO_COUNT>
0

> <PUBCHEM_BOND_DEF_STEREO_COUNT>
0

> <PUBCHEM_BOND_UDEF_STEREO_COUNT>
0

> <PUBCHEM_ISOTOPIC_ATOM_COUNT>
0

> <PUBCHEM_COMPONENT_COUNT>
1

> <PUBCHEM_CACTVS_TAUTO_COUNT>
2

> <PUBCHEM_CONFORMER_ID>
02A5B58B00000001

> <PUBCHEM_MMFF94_ENERGY>
71.4127

> <PUBCHEM_FEATURE_SELFOVERLAP>
46.013

> <PUBCHEM_SHAPE_FINGERPRINT>
106641 1 13973957727886011538
10669705 162 18129948858109872831
10670039 82 17168137915440507277
10917259 69 18054506899127565745
11796584 16 18113615733138481058
12011746 2 18334855017598932907
12166972 35 17203607120627331833
12236239 1 15554447422243614072
12516196 113 18341891909339214328
12596602 18 15410890769401545602
12895836 83 13912327910124963289
12954195 1 18337388236987777293
13402501 40 18411422808619243790
13533116 47 17561360716720467904
13540713 4 17606411105087015393
13668630 136 18202281420439286487
13673619 4 18060139813202340408
13685833 64 18131070437337624362
13782708 43 17989483017666701102
13914758 101 17346604050017748993
14202776 33 15575265490280059397
14251764 18 14261345882283324464
14294032 229 17242162449539095013
14790565 3 17399233049543289092
14856354 85 15502380041559661699
14931854 50 18041848311850741994
15048467 5 14851601077119107289
15131766 46 15910483684417950273
15183329 4 18187643583462614041
15198563 99 18261388884926912813
15475509 8 18261393313085043069
15510800 12 17988096525410741558
15849732 13 18342172293335826615
16994733 274 13695863727417854229
1768 4 11674890982526726382
19784866 240 18273220802255655641
20105231 36 17967541181694756075
20567600 75 18272084989801859013
20735858 18 11887955466896376637
21150785 3 15357696405697795739
21267235 1 18114463457484184697
21279426 13 18260256461312295693
21304303 64 12829495852172991622
21307412 95 18409457980913374094
21344244 78 15482666863162354482
21637258 2 17418090997283341106
21641784 216 16588019061459197268
21682296 61 18131077004105470743
22079108 93 9367345942008044145
22122407 14 13623541112301665918
221357 26 18411135827531129800
2215653 11 18411415120141922139
23522609 53 16154269395482570165
23559900 14 18336261357342964913
23569943 247 18198345052579407939
23576562 1 17241612895967776111
2838139 119 12179843939983063070
29717793 49 18335701667464763468
3004659 81 17894910750208382852
335352 9 18041271150066231605
34797466 226 18334295405410412468
3633792 109 18273493472897718777
392239 28 9583516555669836727
4340502 62 10231761101645305905
437815 12 18412545413995987565
445580 126 12396298193073593644
465052 167 17489590069648006580
474113 269 16271924857568057357
5104073 3 13398048977131725639
5718773 13 18198343962601654790
59682541 35 10015576234226449861
59755656 215 18261106361697846067
6138700 20 18408039598418492071
6328613 192 17603304890518403197
7237137 82 17095793335550525493
9980921 221 18264213521740266093

> <PUBCHEM_SHAPE_MULTIPOLES>
498.41
20.06
1.96
1.29
2.8
0.26
-0.08
-9.83
-8.98
1.3
-0.3
0.17
-0.24
2.41

> <PUBCHEM_SHAPE_SELFOVERLAP>
1092.989

> <PUBCHEM_SHAPE_VOLUME>
274.5

> <PUBCHEM_COORDINATE_TYPE>
2
5
10

$$$$
