24905160
  -OEChem-10052115143D

 35 37  0     0  0  0  0  0  0999 V2000
   -2.1311    1.0138    0.0703 N   0  0  0  0  0  0  0  0  0  0  0  0
   -0.8680    1.3958   -0.1948 N   0  0  0  0  0  0  0  0  0  0  0  0
   -3.4173   -1.0059    0.4301 N   0  0  0  0  0  0  0  0  0  0  0  0
   -2.0247   -3.0024    0.2710 N   0  0  0  0  0  0  0  0  0  0  0  0
    0.3162   -2.9092   -0.1854 N   0  0  0  0  0  0  0  0  0  0  0  0
    5.1975    0.4395    2.2013 N   0  0  0  0  0  0  0  0  0  0  0  0
   -3.1620    2.0142    0.2146 C   0  0  0  0  0  0  0  0  0  0  0  0
   -2.2817   -0.3373    0.1738 C   0  0  0  0  0  0  0  0  0  0  0  0
   -1.0262   -0.8789   -0.0390 C   0  0  0  0  0  0  0  0  0  0  0  0
   -0.2001    0.2388   -0.2602 C   0  0  0  0  0  0  0  0  0  0  0  0
   -3.3573    2.8116   -1.0774 C   0  0  0  0  0  0  0  0  0  0  0  0
   -2.8793    2.9479    1.3941 C   0  0  0  0  0  0  0  0  0  0  0  0
    1.2148    0.2431   -0.5342 C   0  0  0  0  0  0  0  0  0  0  0  0
   -0.9176   -2.2644    0.0164 C   0  0  0  0  0  0  0  0  0  0  0  0
    2.1294    0.3110    0.5170 C   0  0  0  0  0  0  0  0  0  0  0  0
    1.6696    0.1801   -1.8513 C   0  0  0  0  0  0  0  0  0  0  0  0
   -3.1892   -2.3367    0.4593 C   0  0  0  0  0  0  0  0  0  0  0  0
    3.4986    0.3162    0.2509 C   0  0  0  0  0  0  0  0  0  0  0  0
    3.0388    0.1853   -2.1175 C   0  0  0  0  0  0  0  0  0  0  0  0
    3.9533    0.2534   -1.0664 C   0  0  0  0  0  0  0  0  0  0  0  0
    4.4362    0.3842    1.3272 C   0  0  0  0  0  0  0  0  0  0  0  0
   -4.1009    1.4880    0.4252 H   0  0  0  0  0  0  0  0  0  0  0  0
   -2.4662    3.3963   -1.3315 H   0  0  0  0  0  0  0  0  0  0  0  0
   -4.1984    3.5061   -0.9794 H   0  0  0  0  0  0  0  0  0  0  0  0
   -3.5678    2.1433   -1.9197 H   0  0  0  0  0  0  0  0  0  0  0  0
   -1.9699    3.5378    1.2351 H   0  0  0  0  0  0  0  0  0  0  0  0
   -2.7478    2.3771    2.3200 H   0  0  0  0  0  0  0  0  0  0  0  0
   -3.7105    3.6452    1.5428 H   0  0  0  0  0  0  0  0  0  0  0  0
    1.7752    0.3594    1.5456 H   0  0  0  0  0  0  0  0  0  0  0  0
    0.9698    0.1263   -2.6819 H   0  0  0  0  0  0  0  0  0  0  0  0
   -4.0555   -2.9576    0.6609 H   0  0  0  0  0  0  0  0  0  0  0  0
    3.3928    0.1360   -3.1431 H   0  0  0  0  0  0  0  0  0  0  0  0
    1.1580   -2.3860   -0.3762 H   0  0  0  0  0  0  0  0  0  0  0  0
    0.3510   -3.9186   -0.1361 H   0  0  0  0  0  0  0  0  0  0  0  0
    5.0175    0.2562   -1.2900 H   0  0  0  0  0  0  0  0  0  0  0  0
  1  2  1  0  0  0  0
  1  7  1  0  0  0  0
  1  8  1  0  0  0  0
  2 10  2  0  0  0  0
  3  8  2  0  0  0  0
  3 17  1  0  0  0  0
  4 14  1  0  0  0  0
  4 17  2  0  0  0  0
  5 14  1  0  0  0  0
  5 33  1  0  0  0  0
  5 34  1  0  0  0  0
  6 21  3  0  0  0  0
  7 11  1  0  0  0  0
  7 12  1  0  0  0  0
  7 22  1  0  0  0  0
  8  9  1  0  0  0  0
  9 10  1  0  0  0  0
  9 14  2  0  0  0  0
 10 13  1  0  0  0  0
 11 23  1  0  0  0  0
 11 24  1  0  0  0  0
 11 25  1  0  0  0  0
 12 26  1  0  0  0  0
 12 27  1  0  0  0  0
 12 28  1  0  0  0  0
 13 15  1  0  0  0  0
 13 16  2  0  0  0  0
 15 18  2  0  0  0  0
 15 29  1  0  0  0  0
 16 19  1  0  0  0  0
 16 30  1  0  0  0  0
 17 31  1  0  0  0  0
 18 20  1  0  0  0  0
 18 21  1  0  0  0  0
 19 20  2  0  0  0  0
 19 32  1  0  0  0  0
 20 35  1  0  0  0  0
M  END
> <PUBCHEM_COMPOUND_CID>
24905160

> <PUBCHEM_CONFORMER_RMSD>
0.6

> <PUBCHEM_CONFORMER_DIVERSEORDER>
2
4
5
3
6
1

> <PUBCHEM_MMFF94_PARTIAL_CHARGES>
25
1 0.31
10 0.23
13 0.05
14 0.41
15 -0.15
16 -0.15
17 0.47
18 0.07
19 -0.15
2 -0.71
20 -0.15
21 0.48
29 0.15
3 -0.57
30 0.15
31 0.15
32 0.15
33 0.4
34 0.4
35 0.15
4 -0.62
5 -0.9
6 -0.56
7 0.26
8 0.11

> <PUBCHEM_EFFECTIVE_ROTOR_COUNT>
2

> <PUBCHEM_PHARMACOPHORE_FEATURES>
10
1 2 acceptor
1 5 cation
1 5 donor
1 6 acceptor
3 1 3 8 cation
3 3 4 17 cation
3 7 11 12 hydrophobe
5 1 2 8 9 10 rings
6 13 15 16 18 19 20 rings
6 3 4 8 9 14 17 rings

> <PUBCHEM_HEAVY_ATOM_COUNT>
21

> <PUBCHEM_ATOM_DEF_STEREO_COUNT>
0

> <PUBCHEM_ATOM_UDEF_STEREO_COUNT>
0

> <PUBCHEM_BOND_DEF_STEREO_COUNT>
0

> <PUBCHEM_BOND_UDEF_STEREO_COUNT>
0

> <PUBCHEM_ISOTOPIC_ATOM_COUNT>
0

> <PUBCHEM_COMPONENT_COUNT>
1

> <PUBCHEM_CACTVS_TAUTO_COUNT>
5

> <PUBCHEM_CONFORMER_ID>
017C05C800000002

> <PUBCHEM_MMFF94_ENERGY>
46.2226

> <PUBCHEM_FEATURE_SELFOVERLAP>
51.025

> <PUBCHEM_SHAPE_FINGERPRINT>
10319926 262 18342726422180744162
11582403 64 17628321949588257692
11725454 13 17630580385247701704
121448 382 18339908343387007341
12160290 23 18337688476565308263
12236239 1 17604151527466948990
12403259 415 17917439722097206060
12500047 106 18411142398709429244
12549972 3 17844827909727163218
12553582 1 18120951756344921423
12788726 201 18117572926847222987
13140716 1 18122356932642621083
13583140 156 18059559313975293194
13965767 371 17899977127711200376
14178000 22 18263351500212447061
14178342 30 18408323272286427074
14420673 8 18120365463998913226
15042514 8 18265060313302684115
15842332 3 17604159219716433556
16752209 62 18336272318115127055
16945 1 18337966678740120103
173720 79 17968091989553636397
1741750 31 18340491054078677849
18186145 218 17988377961457841476
19049666 15 17916602946266483998
20510252 161 18270974530223142449
20554085 129 17911767268405539025
20645477 70 14779539136896094312
21033648 29 17489584572195499288
21065201 7 18411993459533085406
212916 134 18339355258519913824
21304303 282 18122311680856498511
22112679 90 17822010934542604868
22149856 69 17830756270613019473
22943178 12 17988937656031579780
2334 1 18265064543955629727
23402539 116 18269544083134088271
23419403 2 15478694494701281855
23557571 272 18201170913705801740
23559900 14 18271538485889787038
23598291 2 17531253872201408358
2748010 2 18120114792215665607
350125 39 18120957018075159987
495365 180 17703221790021639574
573450 72 18186796998221928440
58807428 26 18189617142141028475
6049 1 17703250480318800132
633830 44 14045474405147634024
7097593 13 17969210166993288666
7615 1 17749675194085481260
77492 1 17603592966843406246
81228 2 18266196082990787291
84936 182 17694502538027741817
88987 49 18409457989840276060
9862522 239 17823689781271237685

> <PUBCHEM_SHAPE_MULTIPOLES>
402.28
8.22
3.1
1.55
7.02
0.92
0.09
-3.13
-2.65
-5.2
-0.41
2.14
-0.66
0.43

> <PUBCHEM_SHAPE_SELFOVERLAP>
882.776

> <PUBCHEM_SHAPE_VOLUME>
213.5

> <PUBCHEM_COORDINATE_TYPE>
2
5
10

$$$$
