3453573
  -OEChem-10052115183D

 44 47  0     1  0  0  0  0  0999 V2000
    2.1999    1.8570    1.9200 F   0  0  0  0  0  0  0  0  0  0  0  0
   -1.1579    1.9754    1.6706 O   0  0  0  0  0  0  0  0  0  0  0  0
   -0.9782   -2.2962   -0.4421 N   0  0  0  0  0  0  0  0  0  0  0  0
    1.1067   -3.5424   -0.5955 N   0  0  0  0  0  0  0  0  0  0  0  0
    2.3380   -3.1884   -0.1854 N   0  0  0  0  0  0  0  0  0  0  0  0
   -3.7512    0.2776   -0.2543 C   0  0  0  0  0  0  0  0  0  0  0  0
   -3.1352   -1.1357   -0.2255 C   0  0  0  0  0  0  0  0  0  0  0  0
   -3.2485    1.0706    0.9597 C   0  0  0  0  0  0  0  0  0  0  0  0
   -0.9774   -0.1173    0.5702 C   0  0  0  0  0  0  0  0  0  0  0  0
   -1.6410   -1.1488   -0.0071 C   0  0  0  0  0  0  0  0  0  0  0  0
    0.5406   -0.1318    0.7560 C   0  0  1  0  0  0  0  0  0  0  0  0
   -1.7400    1.0586    1.0910 C   0  0  0  0  0  0  0  0  0  0  0  0
    1.1293   -1.4389    0.3093 C   0  0  0  0  0  0  0  0  0  0  0  0
   -5.2847    0.1610   -0.1833 C   0  0  0  0  0  0  0  0  0  0  0  0
   -3.3888    1.0079   -1.5645 C   0  0  0  0  0  0  0  0  0  0  0  0
    0.3582   -2.4804   -0.2821 C   0  0  0  0  0  0  0  0  0  0  0  0
    1.2644    0.9302   -0.0553 C   0  0  0  0  0  0  0  0  0  0  0  0
    2.4061   -1.9458    0.3743 C   0  0  0  0  0  0  0  0  0  0  0  0
    2.0632    1.8742    0.5867 C   0  0  0  0  0  0  0  0  0  0  0  0
    1.1259    0.9554   -1.4416 C   0  0  0  0  0  0  0  0  0  0  0  0
    3.6670   -1.3936    0.8967 C   0  0  0  0  0  0  0  0  0  0  0  0
    2.7261    2.8477   -0.1607 C   0  0  0  0  0  0  0  0  0  0  0  0
    1.7888    1.9288   -2.1889 C   0  0  0  0  0  0  0  0  0  0  0  0
    2.5889    2.8751   -1.5486 C   0  0  0  0  0  0  0  0  0  0  0  0
   -3.3757   -1.6454   -1.1683 H   0  0  0  0  0  0  0  0  0  0  0  0
   -3.5934   -1.7321    0.5751 H   0  0  0  0  0  0  0  0  0  0  0  0
   -3.6540    0.6569    1.8915 H   0  0  0  0  0  0  0  0  0  0  0  0
   -3.5766    2.1148    0.8880 H   0  0  0  0  0  0  0  0  0  0  0  0
    0.7529   -0.0173    1.8271 H   0  0  0  0  0  0  0  0  0  0  0  0
   -5.7576    1.1496   -0.1963 H   0  0  0  0  0  0  0  0  0  0  0  0
   -5.6775   -0.4096   -1.0324 H   0  0  0  0  0  0  0  0  0  0  0  0
   -5.6032   -0.3466    0.7342 H   0  0  0  0  0  0  0  0  0  0  0  0
   -3.8391    2.0067   -1.5937 H   0  0  0  0  0  0  0  0  0  0  0  0
   -2.3087    1.1329   -1.6892 H   0  0  0  0  0  0  0  0  0  0  0  0
   -3.7570    0.4544   -2.4359 H   0  0  0  0  0  0  0  0  0  0  0  0
   -1.5647   -3.0135   -0.8574 H   0  0  0  0  0  0  0  0  0  0  0  0
    3.0911   -3.8525   -0.3149 H   0  0  0  0  0  0  0  0  0  0  0  0
    0.5052    0.2335   -1.9651 H   0  0  0  0  0  0  0  0  0  0  0  0
    4.1434   -0.7527    0.1482 H   0  0  0  0  0  0  0  0  0  0  0  0
    3.4889   -0.7966    1.7968 H   0  0  0  0  0  0  0  0  0  0  0  0
    4.3734   -2.1870    1.1626 H   0  0  0  0  0  0  0  0  0  0  0  0
    3.3488    3.5843    0.3383 H   0  0  0  0  0  0  0  0  0  0  0  0
    1.6810    1.9510   -3.2694 H   0  0  0  0  0  0  0  0  0  0  0  0
    3.1048    3.6332   -2.1304 H   0  0  0  0  0  0  0  0  0  0  0  0
  1 19  1  0  0  0  0
  2 12  2  0  0  0  0
  3 10  1  0  0  0  0
  3 16  1  0  0  0  0
  3 36  1  0  0  0  0
  4  5  1  0  0  0  0
  4 16  2  0  0  0  0
  5 18  1  0  0  0  0
  5 37  1  0  0  0  0
  6  7  1  0  0  0  0
  6  8  1  0  0  0  0
  6 14  1  0  0  0  0
  6 15  1  0  0  0  0
  7 10  1  0  0  0  0
  7 25  1  0  0  0  0
  7 26  1  0  0  0  0
  8 12  1  0  0  0  0
  8 27  1  0  0  0  0
  8 28  1  0  0  0  0
  9 10  2  0  0  0  0
  9 11  1  0  0  0  0
  9 12  1  0  0  0  0
 11 13  1  0  0  0  0
 11 17  1  0  0  0  0
 11 29  1  0  0  0  0
 13 16  1  0  0  0  0
 13 18  2  0  0  0  0
 14 30  1  0  0  0  0
 14 31  1  0  0  0  0
 14 32  1  0  0  0  0
 15 33  1  0  0  0  0
 15 34  1  0  0  0  0
 15 35  1  0  0  0  0
 17 19  1  0  0  0  0
 17 20  2  0  0  0  0
 18 21  1  0  0  0  0
 19 22  2  0  0  0  0
 20 23  1  0  0  0  0
 20 38  1  0  0  0  0
 21 39  1  0  0  0  0
 21 40  1  0  0  0  0
 21 41  1  0  0  0  0
 22 24  1  0  0  0  0
 22 42  1  0  0  0  0
 23 24  2  0  0  0  0
 23 43  1  0  0  0  0
 24 44  1  0  0  0  0
M  END
> <PUBCHEM_COMPOUND_CID>
3453573

> <PUBCHEM_CONFORMER_RMSD>
0.6

> <PUBCHEM_CONFORMER_DIVERSEORDER>
7
1
5
6
2
8
3
4

> <PUBCHEM_MMFF94_PARTIAL_CHARGES>
27
1 -0.19
10 -0.04
11 0.46
12 0.49
13 -0.18
16 0.37
17 -0.14
18 -0.33
19 0.19
2 -0.57
20 -0.15
21 0.18
22 -0.15
23 -0.15
24 -0.15
3 -0.58
36 0.4
37 0.27
38 0.15
4 -0.71
42 0.15
43 0.15
44 0.15
5 0.3
7 0.14
8 0.06
9 -0.12

> <PUBCHEM_EFFECTIVE_ROTOR_COUNT>
2

> <PUBCHEM_PHARMACOPHORE_FEATURES>
9
1 2 acceptor
1 3 donor
1 5 donor
3 3 4 16 cation
3 6 14 15 hydrophobe
5 4 5 13 16 18 rings
6 17 19 20 22 23 24 rings
6 3 9 10 11 13 16 rings
6 6 7 8 9 10 12 rings

> <PUBCHEM_HEAVY_ATOM_COUNT>
24

> <PUBCHEM_ATOM_DEF_STEREO_COUNT>
0

> <PUBCHEM_ATOM_UDEF_STEREO_COUNT>
1

> <PUBCHEM_BOND_DEF_STEREO_COUNT>
0

> <PUBCHEM_BOND_UDEF_STEREO_COUNT>
0

> <PUBCHEM_ISOTOPIC_ATOM_COUNT>
0

> <PUBCHEM_COMPONENT_COUNT>
1

> <PUBCHEM_CACTVS_TAUTO_COUNT>
34

> <PUBCHEM_CONFORMER_ID>
0034B28500000007

> <PUBCHEM_MMFF94_ENERGY>
48.841

> <PUBCHEM_FEATURE_SELFOVERLAP>
45.791

> <PUBCHEM_SHAPE_FINGERPRINT>
11640471 11 17390785935667107676
12035759 4 18340506490217390278
121448 382 17984153822362232640
12422481 6 17971158566280920512
12633257 1 13624639687590303669
12788726 201 17392754766145938874
13132413 78 17983018851521137328
13134695 92 17968653800886965838
13140716 1 18341324591187996283
133893 2 18043837340610550481
13583140 156 17603582985534979291
13681431 1 18118137878561066902
13965767 371 17897989459806970556
14181834 199 18335704909980111310
14955137 171 17766034647027159834
15463212 79 17467075584631411108
1601671 61 18336543820578663918
16945 1 18271241603963733914
17134986 127 18190752014319045812
17357779 13 17975398127680695759
17492 54 18042427789006669206
17980427 23 17986947453679900489
1813 80 18045789991968442194
18769570 83 16953654944584441020
18785283 64 18261402147769019159
19591789 44 17403179695465908707
20510252 161 17474402742660368424
20600515 1 18122916326025972070
21304253 335 17842838824436006177
21524375 3 17971476444645869112
22149856 69 18340772637622003051
2334 1 18197494249569456987
23419403 2 17836328637415016192
23557571 272 15267340678799299203
23559900 14 18411692180224763619
350125 39 18336835306639007195
394222 165 18042678588604083592
46194498 28 18187917336525840669
474 4 18260266386369299755
5845 1 11123689955203759140
6443956 14 18194962937531363016
6992083 37 17550402738782154377
7364860 26 18412825767801215026
81228 2 17252599980171245842
9981440 41 18121494919235778544

> <PUBCHEM_SHAPE_MULTIPOLES>
465.82
6.6
3.77
1.52
7
1.53
-0.13
-1.69
-0.33
-4.15
-0.88
-0.41
-1.13
-0.77

> <PUBCHEM_SHAPE_SELFOVERLAP>
1032.174

> <PUBCHEM_SHAPE_VOLUME>
253.4

> <PUBCHEM_COORDINATE_TYPE>
2
5
10

$$$$
