5092865
  -OEChem-10052120443D

 33 36  0     0  0  0  0  0  0999 V2000
   -0.6490    2.1157    0.2429 O   0  0  0  0  0  0  0  0  0  0  0  0
    5.6922    0.5508    0.1608 O   0  0  0  0  0  0  0  0  0  0  0  0
   -1.3347   -2.3679   -0.2332 N   0  0  0  0  0  0  0  0  0  0  0  0
    0.0249   -2.3626   -0.2156 N   0  0  0  0  0  0  0  0  0  0  0  0
   -0.7843   -0.2607   -0.0066 C   0  0  0  0  0  0  0  0  0  0  0  0
   -1.8394   -1.1257   -0.1101 C   0  0  0  0  0  0  0  0  0  0  0  0
   -3.0941   -0.4462   -0.0553 C   0  0  0  0  0  0  0  0  0  0  0  0
   -2.7813    0.9308    0.0923 C   0  0  0  0  0  0  0  0  0  0  0  0
    0.3483   -1.0621   -0.0762 C   0  0  0  0  0  0  0  0  0  0  0  0
   -1.2834    1.0865    0.1272 C   0  0  0  0  0  0  0  0  0  0  0  0
    1.7240   -0.6471   -0.0156 C   0  0  0  0  0  0  0  0  0  0  0  0
   -4.3963   -0.8846   -0.1178 C   0  0  0  0  0  0  0  0  0  0  0  0
   -3.7586    1.8975    0.1805 C   0  0  0  0  0  0  0  0  0  0  0  0
   -5.3985    0.0883   -0.0294 C   0  0  0  0  0  0  0  0  0  0  0  0
   -5.0843    1.4584    0.1175 C   0  0  0  0  0  0  0  0  0  0  0  0
    2.0915    0.6120   -0.4866 C   0  0  0  0  0  0  0  0  0  0  0  0
    2.6863   -1.5049    0.5142 C   0  0  0  0  0  0  0  0  0  0  0  0
    3.4259    1.0147   -0.4277 C   0  0  0  0  0  0  0  0  0  0  0  0
    4.0204   -1.1023    0.5732 C   0  0  0  0  0  0  0  0  0  0  0  0
    4.3903    0.1575    0.1023 C   0  0  0  0  0  0  0  0  0  0  0  0
    6.0002    1.8519   -0.3369 C   0  0  0  0  0  0  0  0  0  0  0  0
   -1.8157   -3.2540   -0.3315 H   0  0  0  0  0  0  0  0  0  0  0  0
   -4.6466   -1.9330   -0.2304 H   0  0  0  0  0  0  0  0  0  0  0  0
   -3.5210    2.9484    0.2930 H   0  0  0  0  0  0  0  0  0  0  0  0
   -6.4421   -0.2137   -0.0744 H   0  0  0  0  0  0  0  0  0  0  0  0
   -5.8922    2.1833    0.1827 H   0  0  0  0  0  0  0  0  0  0  0  0
    1.3776    1.2893   -0.9437 H   0  0  0  0  0  0  0  0  0  0  0  0
    2.4274   -2.4892    0.8967 H   0  0  0  0  0  0  0  0  0  0  0  0
    3.6456    2.0022   -0.8191 H   0  0  0  0  0  0  0  0  0  0  0  0
    4.7671   -1.7733    0.9889 H   0  0  0  0  0  0  0  0  0  0  0  0
    7.0777    1.9996   -0.2104 H   0  0  0  0  0  0  0  0  0  0  0  0
    5.7902    1.9327   -1.4088 H   0  0  0  0  0  0  0  0  0  0  0  0
    5.5000    2.6341    0.2442 H   0  0  0  0  0  0  0  0  0  0  0  0
  1 10  2  0  0  0  0
  2 20  1  0  0  0  0
  2 21  1  0  0  0  0
  3  4  1  0  0  0  0
  3  6  1  0  0  0  0
  3 22  1  0  0  0  0
  4  9  2  0  0  0  0
  5  6  2  0  0  0  0
  5  9  1  0  0  0  0
  5 10  1  0  0  0  0
  6  7  1  0  0  0  0
  7  8  1  0  0  0  0
  7 12  2  0  0  0  0
  8 10  1  0  0  0  0
  8 13  2  0  0  0  0
  9 11  1  0  0  0  0
 11 16  2  0  0  0  0
 11 17  1  0  0  0  0
 12 14  1  0  0  0  0
 12 23  1  0  0  0  0
 13 15  1  0  0  0  0
 13 24  1  0  0  0  0
 14 15  2  0  0  0  0
 14 25  1  0  0  0  0
 15 26  1  0  0  0  0
 16 18  1  0  0  0  0
 16 27  1  0  0  0  0
 17 19  2  0  0  0  0
 17 28  1  0  0  0  0
 18 20  2  0  0  0  0
 18 29  1  0  0  0  0
 19 20  1  0  0  0  0
 19 30  1  0  0  0  0
 21 31  1  0  0  0  0
 21 32  1  0  0  0  0
 21 33  1  0  0  0  0
M  END
> <PUBCHEM_COMPOUND_CID>
5092865

> <PUBCHEM_CONFORMER_RMSD>
0.6

> <PUBCHEM_CONFORMER_DIVERSEORDER>
2
1
3

> <PUBCHEM_MMFF94_PARTIAL_CHARGES>
30
1 -0.57
10 0.57
11 0.05
12 -0.15
13 -0.15
14 -0.15
15 -0.15
16 -0.15
17 -0.15
18 -0.15
19 -0.15
2 -0.36
20 0.08
21 0.28
22 0.27
23 0.15
24 0.15
25 0.15
26 0.15
27 0.15
28 0.15
29 0.15
3 0.3
30 0.15
4 -0.71
5 -0.09
6 -0.2
7 0.05
8 0.09
9 0.23

> <PUBCHEM_EFFECTIVE_ROTOR_COUNT>
2

> <PUBCHEM_PHARMACOPHORE_FEATURES>
8
1 1 acceptor
1 2 acceptor
1 3 donor
1 4 acceptor
5 3 4 5 6 9 rings
5 5 6 7 8 10 rings
6 11 16 17 18 19 20 rings
6 7 8 12 13 14 15 rings

> <PUBCHEM_HEAVY_ATOM_COUNT>
21

> <PUBCHEM_ATOM_DEF_STEREO_COUNT>
0

> <PUBCHEM_ATOM_UDEF_STEREO_COUNT>
0

> <PUBCHEM_BOND_DEF_STEREO_COUNT>
0

> <PUBCHEM_BOND_UDEF_STEREO_COUNT>
0

> <PUBCHEM_ISOTOPIC_ATOM_COUNT>
0

> <PUBCHEM_COMPONENT_COUNT>
1

> <PUBCHEM_CACTVS_TAUTO_COUNT>
4

> <PUBCHEM_CONFORMER_ID>
004DB60100000002

> <PUBCHEM_MMFF94_ENERGY>
87.8156

> <PUBCHEM_FEATURE_SELFOVERLAP>
40.93

> <PUBCHEM_SHAPE_FINGERPRINT>
10730089 173 18413110571978999156
12107183 9 17615119988766252816
12236239 1 18187080663573937722
12390115 104 18058745614882819105
12403259 415 18115588136670983629
12403814 3 17894627037695928205
12596602 18 17603301561596560440
12788726 201 17775010037807166432
12838862 33 18338497716728251612
12916748 109 18412832377829742974
13583140 156 17022902363348658891
13785724 45 17689150115756492522
14739800 52 18199450200058124032
14787075 74 18413385436895429379
14790565 3 18412267211657788569
15188451 53 15285935718485754745
15196674 1 18410573955086680066
17980427 23 18334299768943938733
20510252 161 18200878378824073289
20715895 44 17902503788610884077
21267235 1 18409456877064119730
21652331 79 18408039598244308324
23402539 116 18272363187407007391
23557571 272 18059861722095421654
23559900 14 18128819634152167574
245318 6 17388838645114529100
3004659 81 18410294667219163314
335352 9 18338516340012181718
34797466 226 17346323729664755564
34934 24 18409445912423868298
350125 39 18410855477672586561
3545911 37 18410576189123801758
4073 2 18041002899536808538
474 4 17749112240153421476
474229 33 18411981356188715927
5104073 3 18335139756555519627
542803 24 17918275346238402368
59755656 215 18342184328393677518
59755656 520 17313382353287083090
9709674 26 18412269410639014998

> <PUBCHEM_SHAPE_MULTIPOLES>
410.47
12.33
2.2
0.67
5.96
0.17
-0.01
-5.55
-0.17
-0.04
0.02
0.15
0.01
-0.7

> <PUBCHEM_SHAPE_SELFOVERLAP>
937.364

> <PUBCHEM_SHAPE_VOLUME>
216

> <PUBCHEM_COORDINATE_TYPE>
2
5
10

$$$$
