20744853
  -OEChem-10052120443D

 49 52  0     1  0  0  0  0  0999 V2000
   -2.4133   -0.9562    0.6332 O   0  0  0  0  0  0  0  0  0  0  0  0
   -5.9816   -1.6125    1.1700 N   0  0  0  0  0  0  0  0  0  0  0  0
    5.6613    1.8435    0.3502 N   0  0  0  0  0  0  0  0  0  0  0  0
    6.1090    0.5729    0.3641 N   0  0  0  0  0  0  0  0  0  0  0  0
   -0.3293   -3.4539   -1.0105 N   0  0  0  0  0  0  0  0  0  0  0  0
   -4.8119   -0.7499    0.9771 C   0  0  2  0  0  0  0  0  0  0  0  0
   -5.2131    0.4041    0.0342 C   0  0  0  0  0  0  0  0  0  0  0  0
   -3.6674   -1.6104    0.4284 C   0  0  0  0  0  0  0  0  0  0  0  0
   -4.1199    1.4116   -0.2280 C   0  0  0  0  0  0  0  0  0  0  0  0
    3.8512    0.6866    0.1407 C   0  0  0  0  0  0  0  0  0  0  0  0
    2.4011   -1.0951   -0.0479 C   0  0  0  0  0  0  0  0  0  0  0  0
    5.0019   -0.1796    0.2348 C   0  0  0  0  0  0  0  0  0  0  0  0
    2.5224    0.3078   -0.0016 C   0  0  0  0  0  0  0  0  0  0  0  0
    1.0729   -1.6610   -0.1947 C   0  0  0  0  0  0  0  0  0  0  0  0
    4.3094    1.9713    0.2180 C   0  0  0  0  0  0  0  0  0  0  0  0
   -1.3056   -1.5724    0.1522 C   0  0  0  0  0  0  0  0  0  0  0  0
    3.5093   -1.9954    0.0412 C   0  0  0  0  0  0  0  0  0  0  0  0
    4.8505   -1.5776    0.1857 C   0  0  0  0  0  0  0  0  0  0  0  0
   -0.0455   -1.0053    0.3080 C   0  0  0  0  0  0  0  0  0  0  0  0
   -3.9838    2.5248    0.6014 C   0  0  0  0  0  0  0  0  0  0  0  0
   -3.2454    1.2292   -1.2995 C   0  0  0  0  0  0  0  0  0  0  0  0
    3.6496    3.2873    0.1855 C   0  0  0  0  0  0  0  0  0  0  0  0
    0.8790   -2.8719   -0.8401 C   0  0  0  0  0  0  0  0  0  0  0  0
   -1.3929   -2.7872   -0.5084 C   0  0  0  0  0  0  0  0  0  0  0  0
   -2.9736    3.4557    0.3594 C   0  0  0  0  0  0  0  0  0  0  0  0
   -2.2351    2.1601   -1.5414 C   0  0  0  0  0  0  0  0  0  0  0  0
   -2.0993    3.2733   -0.7119 C   0  0  0  0  0  0  0  0  0  0  0  0
   -4.5157   -0.3298    1.9466 H   0  0  0  0  0  0  0  0  0  0  0  0
   -5.5606    0.0020   -0.9281 H   0  0  0  0  0  0  0  0  0  0  0  0
   -6.0804    0.9360    0.4503 H   0  0  0  0  0  0  0  0  0  0  0  0
   -3.6459   -2.5628    0.9755 H   0  0  0  0  0  0  0  0  0  0  0  0
   -3.8456   -1.8030   -0.6378 H   0  0  0  0  0  0  0  0  0  0  0  0
    1.7078    1.0123   -0.0922 H   0  0  0  0  0  0  0  0  0  0  0  0
   -6.7454   -1.0694    1.5710 H   0  0  0  0  0  0  0  0  0  0  0  0
   -5.7636   -2.3408    1.8490 H   0  0  0  0  0  0  0  0  0  0  0  0
    3.3540   -3.0739    0.0366 H   0  0  0  0  0  0  0  0  0  0  0  0
    5.6741   -2.2754    0.2595 H   0  0  0  0  0  0  0  0  0  0  0  0
    0.0260   -0.0662    0.8504 H   0  0  0  0  0  0  0  0  0  0  0  0
   -4.6572    2.6765    1.4408 H   0  0  0  0  0  0  0  0  0  0  0  0
   -3.3424    0.3701   -1.9576 H   0  0  0  0  0  0  0  0  0  0  0  0
    6.3453    2.5846    0.4371 H   0  0  0  0  0  0  0  0  0  0  0  0
    2.9290    3.3761    1.0049 H   0  0  0  0  0  0  0  0  0  0  0  0
    4.3688    4.1073    0.2826 H   0  0  0  0  0  0  0  0  0  0  0  0
    3.1122    3.4242   -0.7585 H   0  0  0  0  0  0  0  0  0  0  0  0
    1.6855   -3.4378   -1.2953 H   0  0  0  0  0  0  0  0  0  0  0  0
   -2.3194   -3.3219   -0.6803 H   0  0  0  0  0  0  0  0  0  0  0  0
   -2.8670    4.3220    1.0057 H   0  0  0  0  0  0  0  0  0  0  0  0
   -1.5540    2.0179   -2.3753 H   0  0  0  0  0  0  0  0  0  0  0  0
   -1.3120    3.9975   -0.8997 H   0  0  0  0  0  0  0  0  0  0  0  0
  1  8  1  0  0  0  0
  1 16  1  0  0  0  0
  2  6  1  0  0  0  0
  2 34  1  0  0  0  0
  2 35  1  0  0  0  0
  3  4  1  0  0  0  0
  3 15  1  0  0  0  0
  3 41  1  0  0  0  0
  4 12  2  0  0  0  0
  5 23  2  0  0  0  0
  5 24  1  0  0  0  0
  6  7  1  0  0  0  0
  6  8  1  0  0  0  0
  6 28  1  0  0  0  0
  7  9  1  0  0  0  0
  7 29  1  0  0  0  0
  7 30  1  0  0  0  0
  8 31  1  0  0  0  0
  8 32  1  0  0  0  0
  9 20  2  0  0  0  0
  9 21  1  0  0  0  0
 10 12  1  0  0  0  0
 10 13  1  0  0  0  0
 10 15  2  0  0  0  0
 11 13  2  0  0  0  0
 11 14  1  0  0  0  0
 11 17  1  0  0  0  0
 12 18  1  0  0  0  0
 13 33  1  0  0  0  0
 14 19  2  0  0  0  0
 14 23  1  0  0  0  0
 15 22  1  0  0  0  0
 16 19  1  0  0  0  0
 16 24  2  0  0  0  0
 17 18  2  0  0  0  0
 17 36  1  0  0  0  0
 18 37  1  0  0  0  0
 19 38  1  0  0  0  0
 20 25  1  0  0  0  0
 20 39  1  0  0  0  0
 21 26  2  0  0  0  0
 21 40  1  0  0  0  0
 22 42  1  0  0  0  0
 22 43  1  0  0  0  0
 22 44  1  0  0  0  0
 23 45  1  0  0  0  0
 24 46  1  0  0  0  0
 25 27  2  0  0  0  0
 25 47  1  0  0  0  0
 26 27  1  0  0  0  0
 26 48  1  0  0  0  0
 27 49  1  0  0  0  0
M  END
> <PUBCHEM_COMPOUND_CID>
20744853

> <PUBCHEM_CONFORMER_RMSD>
1

> <PUBCHEM_CONFORMER_DIVERSEORDER>
1
186
410
335
3
266
18
85
542
162
289
450
149
107
206
381
40
125
314
110
183
295
146
270
91
21
145
243
346
521
46
569
169
417
233
111
174
47
524
57
36
16
29
242
25
122
80
413
200
528
60
152
10
129
462
171
431
4
127
330
511
352
48
370
375
2
76
280
167
258
108
229
192
543
106
403
515
185
404
427
64
480
406
199
38
392
263
301
45
158
139
27
363
261
168
297
32
221
100
285
12
113
19
37
98
44
538
398
460
24
75
234
6
331
350
14
53
343
290
272
49
380
442
575
35
367
41
255
102
282
274
9
144
116
157
237
56
8
42
479
20
507
82
287
182
548
131
121
55
228

> <PUBCHEM_MMFF94_PARTIAL_CHARGES>
38
1 -0.36
12 0.29
13 -0.15
15 -0.33
16 0.08
17 -0.15
18 -0.15
19 -0.15
2 -0.99
20 -0.15
21 -0.15
22 0.18
23 0.16
24 0.16
25 -0.15
26 -0.15
27 -0.15
3 0.3
33 0.15
34 0.36
35 0.36
36 0.15
37 0.15
38 0.15
39 0.15
4 -0.71
40 0.15
41 0.27
45 0.15
46 0.15
47 0.15
48 0.15
49 0.15
5 -0.62
6 0.27
7 0.14
8 0.28
9 -0.14

> <PUBCHEM_EFFECTIVE_ROTOR_COUNT>
6

> <PUBCHEM_PHARMACOPHORE_FEATURES>
10
1 1 acceptor
1 2 cation
1 2 donor
1 3 donor
1 4 acceptor
1 5 acceptor
5 3 4 10 12 15 rings
6 10 11 12 13 17 18 rings
6 5 14 16 19 23 24 rings
6 9 20 21 25 26 27 rings

> <PUBCHEM_HEAVY_ATOM_COUNT>
27

> <PUBCHEM_ATOM_DEF_STEREO_COUNT>
0

> <PUBCHEM_ATOM_UDEF_STEREO_COUNT>
1

> <PUBCHEM_BOND_DEF_STEREO_COUNT>
0

> <PUBCHEM_BOND_UDEF_STEREO_COUNT>
0

> <PUBCHEM_ISOTOPIC_ATOM_COUNT>
0

> <PUBCHEM_COMPONENT_COUNT>
1

> <PUBCHEM_CACTVS_TAUTO_COUNT>
2

> <PUBCHEM_CONFORMER_ID>
013C8A9500000001

> <PUBCHEM_MMFF94_ENERGY>
83.0719

> <PUBCHEM_FEATURE_SELFOVERLAP>
50.879

> <PUBCHEM_SHAPE_FINGERPRINT>
10256941 240 16809240698067985069
10670039 82 18261692410401890052
11595378 159 17458612406955089032
12107183 9 18337659812386774026
12128747 34 17459752510688499874
12596602 18 17167858685929721848
12925494 130 18267300920473982425
12978246 48 18409728482427738168
13402501 40 18410292514812924081
13561361 72 18335412500170250064
14251764 38 18339360747329518185
14466204 15 18192421975319492746
15320467 1 18267583705099311088
15419008 145 18261660507854456496
15961568 22 18334580161172236885
17844677 252 18410580552336217210
18393751 57 18409739465239577619
19611394 137 17899427668915026163
20764821 26 17980186810263942836
21033648 144 18188481355150944301
21033648 29 18272639147909480384
21315764 268 18335416846481357566
21623110 236 18410299099351502665
23559900 14 17907859509491298283
25019877 29 17702676582768639983
338550 245 18261958552377482628
350125 39 18410577296967083144
373842 8 18116721900858350857
392239 28 18411144632272232265
445580 44 16298384617923049413
469060 322 16443061699289969335
474144 1 17533236385755214637
5081480 168 17057271876998999830
5104073 3 18261110716768213570
6287921 2 18192726548424560693
7399639 24 18339655443055063543
7808743 9 18341045319655894394

> <PUBCHEM_SHAPE_MULTIPOLES>
529.85
13.6
4.49
0.98
5.11
1.39
-0.18
4.62
3.39
-1.12
-0.65
-0.95
0.04
1.3

> <PUBCHEM_SHAPE_SELFOVERLAP>
1162.79

> <PUBCHEM_SHAPE_VOLUME>
286

> <PUBCHEM_COORDINATE_TYPE>
2
5
10

$$$$
