9806182
  -OEChem-10062121583D

 67 71  0     1  0  0  0  0  0999 V2000
    1.8092   -3.5185    1.6784 F   0  0  0  0  0  0  0  0  0  0  0  0
    1.6145   -5.3351    0.5097 F   0  0  0  0  0  0  0  0  0  0  0  0
    0.0446   -4.7690    1.9039 F   0  0  0  0  0  0  0  0  0  0  0  0
   -7.9807    0.9533    0.4394 N   0  0  0  0  0  0  0  0  0  0  0  0
   -2.6207    1.5314   -0.0262 N   0  0  0  0  0  0  0  0  0  0  0  0
   -3.3303   -0.5699   -0.1395 N   0  0  0  0  0  0  0  0  0  0  0  0
    2.8404    2.1153    1.2476 N   0  0  0  0  0  0  0  0  0  0  0  0
    2.3186    2.4248   -1.0563 N   0  0  0  0  0  0  0  0  0  0  0  0
   -5.0620    1.1510    0.4901 C   0  0  0  0  0  0  0  0  0  0  0  0
   -5.8288    0.1068    1.3171 C   0  0  0  0  0  0  0  0  0  0  0  0
   -5.8923    1.5719   -0.7328 C   0  0  0  0  0  0  0  0  0  0  0  0
   -3.6717    0.6721    0.1045 C   0  0  0  0  0  0  0  0  0  0  0  0
   -7.2382    0.5975    1.6490 C   0  0  0  0  0  0  0  0  0  0  0  0
   -7.2994    2.0033   -0.3183 C   0  0  0  0  0  0  0  0  0  0  0  0
   -1.5304    0.7868   -0.3781 C   0  0  0  0  0  0  0  0  0  0  0  0
   -1.9930   -0.5067   -0.4415 C   0  0  0  0  0  0  0  0  0  0  0  0
   -2.6588    2.9635    0.1722 C   0  0  0  0  0  0  0  0  0  0  0  0
   -0.2179    1.3454   -0.6087 C   0  0  0  0  0  0  0  0  0  0  0  0
   -1.2092   -1.6577   -0.7758 C   0  0  0  0  0  0  0  0  0  0  0  0
    0.6838    1.4612    0.4417 C   0  0  0  0  0  0  0  0  0  0  0  0
    0.1436    1.7671   -1.8820 C   0  0  0  0  0  0  0  0  0  0  0  0
   -0.5544   -2.3763    0.2273 C   0  0  0  0  0  0  0  0  0  0  0  0
   -1.0970   -2.0669   -2.1066 C   0  0  0  0  0  0  0  0  0  0  0  0
    1.9292    2.0032    0.1678 C   0  0  0  0  0  0  0  0  0  0  0  0
    0.2084   -3.4976   -0.0986 C   0  0  0  0  0  0  0  0  0  0  0  0
    4.1523    2.6541    1.0951 C   0  0  2  0  0  0  0  0  0  0  0  0
    1.4132    2.2955   -2.0518 C   0  0  0  0  0  0  0  0  0  0  0  0
   -0.3341   -3.1882   -2.4324 C   0  0  0  0  0  0  0  0  0  0  0  0
    0.3186   -3.9036   -1.4286 C   0  0  0  0  0  0  0  0  0  0  0  0
    5.0754    1.6194    0.4883 C   0  0  0  0  0  0  0  0  0  0  0  0
    0.9064   -4.2632    0.9742 C   0  0  0  0  0  0  0  0  0  0  0  0
    4.6467    3.1772    2.4421 C   0  0  0  0  0  0  0  0  0  0  0  0
    6.0980    2.0339   -0.3471 C   0  0  0  0  0  0  0  0  0  0  0  0
    4.8766    0.2816    0.7818 C   0  0  0  0  0  0  0  0  0  0  0  0
    6.9487    1.0805   -0.9064 C   0  0  0  0  0  0  0  0  0  0  0  0
    5.7273   -0.6718    0.2224 C   0  0  0  0  0  0  0  0  0  0  0  0
    6.7635   -0.2724   -0.6217 C   0  0  0  0  0  0  0  0  0  0  0  0
   -4.9510    2.0319    1.1374 H   0  0  0  0  0  0  0  0  0  0  0  0
   -5.8951   -0.8405    0.7652 H   0  0  0  0  0  0  0  0  0  0  0  0
   -5.2875   -0.1097    2.2464 H   0  0  0  0  0  0  0  0  0  0  0  0
   -5.4046    2.3942   -1.2684 H   0  0  0  0  0  0  0  0  0  0  0  0
   -5.9582    0.7368   -1.4434 H   0  0  0  0  0  0  0  0  0  0  0  0
   -7.7827   -0.1910    2.1803 H   0  0  0  0  0  0  0  0  0  0  0  0
   -7.1935    1.4588    2.3264 H   0  0  0  0  0  0  0  0  0  0  0  0
   -7.8881    2.2331   -1.2132 H   0  0  0  0  0  0  0  0  0  0  0  0
   -7.2572    2.9246    0.2750 H   0  0  0  0  0  0  0  0  0  0  0  0
   -8.0686    0.1249   -0.1497 H   0  0  0  0  0  0  0  0  0  0  0  0
   -3.4687    3.3837   -0.4277 H   0  0  0  0  0  0  0  0  0  0  0  0
   -1.7205    3.4268   -0.1370 H   0  0  0  0  0  0  0  0  0  0  0  0
   -2.8251    3.1562    1.2353 H   0  0  0  0  0  0  0  0  0  0  0  0
    0.4194    1.1371    1.4444 H   0  0  0  0  0  0  0  0  0  0  0  0
   -0.5345    1.6917   -2.7259 H   0  0  0  0  0  0  0  0  0  0  0  0
   -0.6358   -2.0652    1.2671 H   0  0  0  0  0  0  0  0  0  0  0  0
   -1.5993   -1.5205   -2.9016 H   0  0  0  0  0  0  0  0  0  0  0  0
    4.1077    3.5252    0.4268 H   0  0  0  0  0  0  0  0  0  0  0  0
    1.7461    2.6394   -3.0255 H   0  0  0  0  0  0  0  0  0  0  0  0
    2.6124    1.6009    2.0924 H   0  0  0  0  0  0  0  0  0  0  0  0
   -0.2483   -3.5041   -3.4680 H   0  0  0  0  0  0  0  0  0  0  0  0
    0.9081   -4.7741   -1.7024 H   0  0  0  0  0  0  0  0  0  0  0  0
    4.7199    2.3726    3.1832 H   0  0  0  0  0  0  0  0  0  0  0  0
    3.9626    3.9338    2.8423 H   0  0  0  0  0  0  0  0  0  0  0  0
    5.6389    3.6319    2.3479 H   0  0  0  0  0  0  0  0  0  0  0  0
    6.2514    3.0850   -0.5735 H   0  0  0  0  0  0  0  0  0  0  0  0
    4.0941   -0.0624    1.4510 H   0  0  0  0  0  0  0  0  0  0  0  0
    7.7559    1.3915   -1.5632 H   0  0  0  0  0  0  0  0  0  0  0  0
    5.5861   -1.7248    0.4476 H   0  0  0  0  0  0  0  0  0  0  0  0
    7.4267   -1.0147   -1.0563 H   0  0  0  0  0  0  0  0  0  0  0  0
  1 31  1  0  0  0  0
  2 31  1  0  0  0  0
  3 31  1  0  0  0  0
  4 13  1  0  0  0  0
  4 14  1  0  0  0  0
  4 47  1  0  0  0  0
  5 12  1  0  0  0  0
  5 15  1  0  0  0  0
  5 17  1  0  0  0  0
  6 12  2  0  0  0  0
  6 16  1  0  0  0  0
  7 24  1  0  0  0  0
  7 26  1  0  0  0  0
  7 57  1  0  0  0  0
  8 24  2  0  0  0  0
  8 27  1  0  0  0  0
  9 10  1  0  0  0  0
  9 11  1  0  0  0  0
  9 12  1  0  0  0  0
  9 38  1  0  0  0  0
 10 13  1  0  0  0  0
 10 39  1  0  0  0  0
 10 40  1  0  0  0  0
 11 14  1  0  0  0  0
 11 41  1  0  0  0  0
 11 42  1  0  0  0  0
 13 43  1  0  0  0  0
 13 44  1  0  0  0  0
 14 45  1  0  0  0  0
 14 46  1  0  0  0  0
 15 16  2  0  0  0  0
 15 18  1  0  0  0  0
 16 19  1  0  0  0  0
 17 48  1  0  0  0  0
 17 49  1  0  0  0  0
 17 50  1  0  0  0  0
 18 20  2  0  0  0  0
 18 21  1  0  0  0  0
 19 22  2  0  0  0  0
 19 23  1  0  0  0  0
 20 24  1  0  0  0  0
 20 51  1  0  0  0  0
 21 27  2  0  0  0  0
 21 52  1  0  0  0  0
 22 25  1  0  0  0  0
 22 53  1  0  0  0  0
 23 28  2  0  0  0  0
 23 54  1  0  0  0  0
 25 29  2  0  0  0  0
 25 31  1  0  0  0  0
 26 30  1  0  0  0  0
 26 32  1  0  0  0  0
 26 55  1  0  0  0  0
 27 56  1  0  0  0  0
 28 29  1  0  0  0  0
 28 58  1  0  0  0  0
 29 59  1  0  0  0  0
 30 33  2  0  0  0  0
 30 34  1  0  0  0  0
 32 60  1  0  0  0  0
 32 61  1  0  0  0  0
 32 62  1  0  0  0  0
 33 35  1  0  0  0  0
 33 63  1  0  0  0  0
 34 36  2  0  0  0  0
 34 64  1  0  0  0  0
 35 37  2  0  0  0  0
 35 65  1  0  0  0  0
 36 37  1  0  0  0  0
 36 66  1  0  0  0  0
 37 67  1  0  0  0  0
M  END
> <PUBCHEM_COMPOUND_CID>
9806182

> <PUBCHEM_CONFORMER_RMSD>
1

> <PUBCHEM_CONFORMER_DIVERSEORDER>
1
38
58
165
126
68
63
72
35
182
118
143
114
110
159
200
103
213
46
82
189
202
183
206
28
44
120
131
178
219
13
140
175
130
194
190
49
129
62
54
173
76
32
107
109
212
195
172
42
102
108
66
135
119
87
210
146
204
48
208
170
117
160
97
133
81
209
113
73
199
29
218
83
23
177
116
80
65
184
192
100
59
180
88
61
211
152
6
207
128
77
45
50
185
4
198
112
163
154
9
89
98
153
104
171
53
157
33
24
164
186
216
201
27
69
141
158
12
17
40
125
11
101
188
106
150
137
43
15
39
115
166
191
162
41
151
22
64
203
215
179
169
138
193
161
123
176
142
91
51
214
86
30
187
85
99
8
36
167
47
67
78
18
94
196
136
181
148
122
79
124
52
168
31
95
105
2
111
217
55
127
90
74
145
205
56
84
75
155
121
96
20
139
57
10
71
132
7
3
25
147
156
21
16
149
37
197
60
14
144
93
70
92
5
34
19
174
134
26

> <PUBCHEM_MMFF94_PARTIAL_CHARGES>
48
1 -0.34
12 0.01
13 0.27
14 0.27
15 -0.2
16 0.17
17 0.26
18 0.05
19 0.05
2 -0.34
20 -0.15
21 -0.15
22 -0.15
23 -0.15
24 0.41
25 -0.14
26 0.51
27 0.16
28 -0.15
29 -0.15
3 -0.34
30 -0.14
31 1.16
33 -0.15
34 -0.15
35 -0.15
36 -0.15
37 -0.15
4 -0.9
47 0.36
5 0.05
51 0.15
52 0.15
53 0.15
54 0.15
56 0.15
57 0.4
58 0.15
59 0.15
6 -0.57
63 0.15
64 0.15
65 0.15
66 0.15
67 0.15
7 -0.87
8 -0.62
9 0.18

> <PUBCHEM_EFFECTIVE_ROTOR_COUNT>
8.2

> <PUBCHEM_PHARMACOPHORE_FEATURES>
10
1 4 cation
1 4 donor
1 7 donor
3 5 6 12 cation
3 7 8 24 cation
5 5 6 12 15 16 rings
6 19 22 23 25 28 29 rings
6 30 33 34 35 36 37 rings
6 4 9 10 11 13 14 rings
6 8 18 20 21 24 27 rings

> <PUBCHEM_HEAVY_ATOM_COUNT>
37

> <PUBCHEM_ATOM_DEF_STEREO_COUNT>
1

> <PUBCHEM_ATOM_UDEF_STEREO_COUNT>
0

> <PUBCHEM_BOND_DEF_STEREO_COUNT>
0

> <PUBCHEM_BOND_UDEF_STEREO_COUNT>
0

> <PUBCHEM_ISOTOPIC_ATOM_COUNT>
0

> <PUBCHEM_COMPONENT_COUNT>
1

> <PUBCHEM_CACTVS_TAUTO_COUNT>
2

> <PUBCHEM_CONFORMER_ID>
0095A16600000001

> <PUBCHEM_MMFF94_ENERGY>
90.9024

> <PUBCHEM_FEATURE_SELFOVERLAP>
50.749

> <PUBCHEM_SHAPE_FINGERPRINT>
11135926 11 18342453739176525333
12788726 201 17618789501824487815
12977781 61 16915682460031290285
13008946 113 17974014950680720605
13383668 1 18113611297539992515
13383668 40 18043810884577371629
14028597 1 17846228700468050569
14150023 79 18409726227960122487
14840074 17 18113896070233733692
14918310 93 18263926540546143430
15274700 242 17749931363742339416
15357212 105 17902244634463471340
15361156 5 18127412465959710220
15849732 13 18186804694397777916
15927050 60 18341326773406091167
16994733 274 15554175792028388785
19315958 150 18343023324627792404
20505436 4 17026867335101484236
21033648 29 18340476889429997696
21403212 168 18343580716170527997
21585483 110 18337943485505395277
21781055 127 17914928424228124781
22956985 138 17971476195638291707
23559900 14 17969514697976682733
23569917 315 18270405005229328999
249057 3 18343303695666208116
249999 5 18339643339667632427
3178227 256 18410304605214596689
3411729 13 18340489954994187915
3418910 222 17472702426135613338
4073 2 18054784246946413320
4408954 64 16376663502017582843
5265222 85 18336833090810695500
5385378 56 18339085895994543137
5912855 24 17760096507085725396
59755656 215 18335984169075879309
59755656 520 18131063866365203437
6371380 46 18341893013420206872
6679774 75 17967822681855746682

> <PUBCHEM_SHAPE_MULTIPOLES>
714.72
16.88
5.79
1.85
8.98
9.36
-0.14
-15.31
4.25
-3.03
1.3
-0.5
0.52
0.25

> <PUBCHEM_SHAPE_SELFOVERLAP>
1562.574

> <PUBCHEM_SHAPE_VOLUME>
390.6

> <PUBCHEM_COORDINATE_TYPE>
2
5
10

$$$$
