49830644
  -OEChem-10052120443D

 41 43  0     0  0  0  0  0  0999 V2000
    0.4542   -2.0692   -0.5532 S   0  0  0  0  0  0  0  0  0  0  0  0
   -2.4988    0.3918   -1.8801 O   0  0  0  0  0  0  0  0  0  0  0  0
   -0.4748    1.8350    0.2159 N   0  0  0  0  0  0  0  0  0  0  0  0
    1.7083    2.7411    0.0524 N   0  0  0  0  0  0  0  0  0  0  0  0
    1.8999    0.4030    0.0671 N   0  0  0  0  0  0  0  0  0  0  0  0
    3.8547    1.8040   -0.0865 N   0  0  0  0  0  0  0  0  0  0  0  0
   -0.0415    4.1802    0.1778 N   0  0  0  0  0  0  0  0  0  0  0  0
   -2.7176    0.8648    0.4598 C   0  0  0  0  0  0  0  0  0  0  0  0
   -1.9114    2.1140    0.3227 C   0  0  0  0  0  0  0  0  0  0  0  0
   -2.9760    0.0580   -0.6483 C   0  0  0  0  0  0  0  0  0  0  0  0
   -3.2146    0.5081    1.7133 C   0  0  0  0  0  0  0  0  0  0  0  0
   -3.7314   -1.1056   -0.5028 C   0  0  0  0  0  0  0  0  0  0  0  0
   -3.9699   -0.6555    1.8589 C   0  0  0  0  0  0  0  0  0  0  0  0
    2.7130   -0.6728    0.0229 C   0  0  0  0  0  0  0  0  0  0  0  0
   -4.2284   -1.4625    0.7508 C   0  0  0  0  0  0  0  0  0  0  0  0
    2.0379   -1.9418    0.0854 C   0  0  0  0  0  0  0  0  0  0  0  0
    0.3271    2.8476    0.1478 C   0  0  0  0  0  0  0  0  0  0  0  0
    2.5280    1.5928    0.0088 C   0  0  0  0  0  0  0  0  0  0  0  0
    4.0872   -0.5917   -0.0745 C   0  0  0  0  0  0  0  0  0  0  0  0
    2.4837   -3.1373    0.6045 C   0  0  0  0  0  0  0  0  0  0  0  0
    4.6078    0.6853   -0.1262 C   0  0  0  0  0  0  0  0  0  0  0  0
    1.5123   -4.1717    0.4761 C   0  0  0  0  0  0  0  0  0  0  0  0
    0.3612   -3.7273   -0.1361 C   0  0  0  0  0  0  0  0  0  0  0  0
   -2.8109   -0.4904   -2.9563 C   0  0  0  0  0  0  0  0  0  0  0  0
   -2.1039    2.7607    1.1892 H   0  0  0  0  0  0  0  0  0  0  0  0
   -2.2600    2.6653   -0.5608 H   0  0  0  0  0  0  0  0  0  0  0  0
   -3.0199    1.1242    2.5872 H   0  0  0  0  0  0  0  0  0  0  0  0
   -3.9719   -1.7810   -1.3165 H   0  0  0  0  0  0  0  0  0  0  0  0
   -4.3561   -0.9338    2.8351 H   0  0  0  0  0  0  0  0  0  0  0  0
   -4.8162   -2.3686    0.8655 H   0  0  0  0  0  0  0  0  0  0  0  0
    2.2458    3.6020    0.0052 H   0  0  0  0  0  0  0  0  0  0  0  0
    4.7366   -1.4571   -0.1165 H   0  0  0  0  0  0  0  0  0  0  0  0
    3.4547   -3.2789    1.0627 H   0  0  0  0  0  0  0  0  0  0  0  0
    5.6773    0.8492   -0.2048 H   0  0  0  0  0  0  0  0  0  0  0  0
    1.6502   -5.1896    0.8168 H   0  0  0  0  0  0  0  0  0  0  0  0
   -0.5306   -4.2965   -0.3579 H   0  0  0  0  0  0  0  0  0  0  0  0
   -2.3514   -0.0725   -3.8582 H   0  0  0  0  0  0  0  0  0  0  0  0
   -3.8895   -0.5356   -3.1417 H   0  0  0  0  0  0  0  0  0  0  0  0
   -2.3707   -1.4823   -2.8072 H   0  0  0  0  0  0  0  0  0  0  0  0
    0.6534    4.9171    0.1233 H   0  0  0  0  0  0  0  0  0  0  0  0
   -1.0089    4.4748    0.2449 H   0  0  0  0  0  0  0  0  0  0  0  0
  1 16  1  0  0  0  0
  1 23  1  0  0  0  0
  2 10  1  0  0  0  0
  2 24  1  0  0  0  0
  3  9  1  0  0  0  0
  3 17  2  0  0  0  0
  4 17  1  0  0  0  0
  4 18  1  0  0  0  0
  4 31  1  0  0  0  0
  5 14  2  0  0  0  0
  5 18  1  0  0  0  0
  6 18  2  0  0  0  0
  6 21  1  0  0  0  0
  7 17  1  0  0  0  0
  7 40  1  0  0  0  0
  7 41  1  0  0  0  0
  8  9  1  0  0  0  0
  8 10  1  0  0  0  0
  8 11  2  0  0  0  0
  9 25  1  0  0  0  0
  9 26  1  0  0  0  0
 10 12  2  0  0  0  0
 11 13  1  0  0  0  0
 11 27  1  0  0  0  0
 12 15  1  0  0  0  0
 12 28  1  0  0  0  0
 13 15  2  0  0  0  0
 13 29  1  0  0  0  0
 14 16  1  0  0  0  0
 14 19  1  0  0  0  0
 15 30  1  0  0  0  0
 16 20  2  0  0  0  0
 19 21  2  0  0  0  0
 19 32  1  0  0  0  0
 20 22  1  0  0  0  0
 20 33  1  0  0  0  0
 21 34  1  0  0  0  0
 22 23  2  0  0  0  0
 22 35  1  0  0  0  0
 23 36  1  0  0  0  0
 24 37  1  0  0  0  0
 24 38  1  0  0  0  0
 24 39  1  0  0  0  0
M  END
> <PUBCHEM_COMPOUND_CID>
49830644

> <PUBCHEM_CONFORMER_RMSD>
1

> <PUBCHEM_CONFORMER_DIVERSEORDER>
1
154
169
12
14
47
127
145
197
59
49
35
153
39
94
199
38
34
196
69
170
37
171
123
6
155
161
33
110
111
21
144
164
140
173
117
112
3
32
150
80
25
103
40
190
26
135
133
89
165
113
84
175
15
87
132
13
71
137
90
185
44
92
198
120
99
172
29
119
51
65
131
156
188
8
85
66
10
136
162
54
96
7
9
79
160
91
105
141
148
130
78
62
195
125
115
166
97
158
30
77
102
70
177
107
72
16
68
143
168
108
53
181
23
152
118
17
73
163
124
176
52
129
157
189
122
24
56
83
36
50
147
180
45
179
151
82
18
149
191
86
22
95
109
75
93
139
183
167
19
106
28
67
63
31
182
134
194
184
100
42
101
11
138
126
128
142
146
55
174
88
121
178
61
58
20
2
192
41
187
104
114
74
60
98
27
46
76
48
5
57
4
116
64
193
43
81
159
186

> <PUBCHEM_MMFF94_PARTIAL_CHARGES>
36
1 -0.08
10 0.08
11 -0.15
12 -0.15
13 -0.15
14 0.36
15 -0.15
16 -0.01
17 0.55
18 0.72
19 -0.15
2 -0.36
20 -0.15
21 0.16
22 -0.15
23 -0.11
24 0.28
27 0.15
28 0.15
29 0.15
3 -0.7
30 0.15
31 0.4
32 0.15
33 0.15
34 0.15
35 0.15
36 0.15
4 -0.55
40 0.4
41 0.4
5 -0.62
6 -0.62
7 -0.85
8 -0.14
9 0.39

> <PUBCHEM_EFFECTIVE_ROTOR_COUNT>
6

> <PUBCHEM_PHARMACOPHORE_FEATURES>
9
1 2 acceptor
1 4 donor
1 5 acceptor
1 7 donor
4 3 4 7 17 cation
4 4 5 6 18 cation
5 1 16 20 22 23 rings
6 5 6 14 18 19 21 rings
6 8 10 11 12 13 15 rings

> <PUBCHEM_HEAVY_ATOM_COUNT>
24

> <PUBCHEM_ATOM_DEF_STEREO_COUNT>
0

> <PUBCHEM_ATOM_UDEF_STEREO_COUNT>
0

> <PUBCHEM_BOND_DEF_STEREO_COUNT>
0

> <PUBCHEM_BOND_UDEF_STEREO_COUNT>
0

> <PUBCHEM_ISOTOPIC_ATOM_COUNT>
0

> <PUBCHEM_COMPONENT_COUNT>
1

> <PUBCHEM_CACTVS_TAUTO_COUNT>
7

> <PUBCHEM_CONFORMER_ID>
02F85AF400000001

> <PUBCHEM_MMFF94_ENERGY>
73.9437

> <PUBCHEM_FEATURE_SELFOVERLAP>
45.752

> <PUBCHEM_SHAPE_FINGERPRINT>
10616163 171 18195532497692725552
1100329 8 18050851314821915768
12156800 1 16604397695898626719
12539773 59 17632302263601585971
12553582 1 18339361842614705082
13122387 1 18410293583916986922
13402501 40 18188217614368667747
13911987 19 18261956357469573796
14765038 42 18056219065937459832
14790565 3 18338534035330662568
14916288 52 17689724060419113018
17138139 8 17052437655269149999
18219364 16 18261663878596525559
19591789 44 18411142446133573138
19930381 70 18409172121154414539
20028762 73 18129102388818213894
23557571 272 17095241402382942189
238 59 17973971159441408735
3737641 26 18268166266036059178
469060 322 17678725972219813071
5309563 4 18409738386874985019
57091435 65 18267593416130591342
9795274 37 18044094562001990538

> <PUBCHEM_SHAPE_MULTIPOLES>
466.98
8.15
4.79
1.49
0.35
0.72
-0.92
0.75
0.89
-3.17
0.7
2.49
0.36
-0.37

> <PUBCHEM_SHAPE_SELFOVERLAP>
993.489

> <PUBCHEM_SHAPE_VOLUME>
261.2

> <PUBCHEM_COORDINATE_TYPE>
2
5
10

$$$$
