49830967
  -OEChem-10062121523D

 29 32  0     0  0  0  0  0  0999 V2000
    3.9726   -3.0598   -0.0012 Br  0  0  0  0  0  0  0  0  0  0  0  0
   -0.9713    3.1139   -0.0012 O   0  0  0  0  0  0  0  0  0  0  0  0
    1.2386   -2.2270   -0.0005 O   0  0  0  0  0  0  0  0  0  0  0  0
   -5.8214   -1.4676    0.0019 O   0  5  0  0  0  0  0  0  0  0  0  0
   -5.8510    0.7274    0.0014 O   0  0  0  0  0  0  0  0  0  0  0  0
    0.3542   -0.1021   -0.0009 N   0  0  0  0  0  0  0  0  0  0  0  0
    1.6943    1.8827   -0.0001 N   0  0  0  0  0  0  0  0  0  0  0  0
   -5.2289   -0.3619    0.0011 N   0  3  0  0  0  0  0  0  0  0  0  0
   -1.0308   -0.3694   -0.0010 C   0  0  0  0  0  0  0  0  0  0  0  0
   -1.7561    0.8276   -0.0010 C   0  0  0  0  0  0  0  0  0  0  0  0
    0.5652    1.2667   -0.0008 C   0  0  0  0  0  0  0  0  0  0  0  0
   -0.7850    1.9223   -0.0012 C   0  0  0  0  0  0  0  0  0  0  0  0
    1.3960   -1.0138   -0.0006 C   0  0  0  0  0  0  0  0  0  0  0  0
    2.7391   -0.3637   -0.0002 C   0  0  0  0  0  0  0  0  0  0  0  0
    2.8310    1.0443    0.0003 C   0  0  0  0  0  0  0  0  0  0  0  0
   -1.6971   -1.5810   -0.0006 C   0  0  0  0  0  0  0  0  0  0  0  0
   -3.1342    0.8780   -0.0004 C   0  0  0  0  0  0  0  0  0  0  0  0
   -3.8084   -0.3428    0.0002 C   0  0  0  0  0  0  0  0  0  0  0  0
   -3.0979   -1.5589    0.0000 C   0  0  0  0  0  0  0  0  0  0  0  0
    3.8937   -1.1533    0.0000 C   0  0  0  0  0  0  0  0  0  0  0  0
    4.0991    1.6356    0.0014 C   0  0  0  0  0  0  0  0  0  0  0  0
    5.1477   -0.5437    0.0013 C   0  0  0  0  0  0  0  0  0  0  0  0
    5.2507    0.8465    0.0022 C   0  0  0  0  0  0  0  0  0  0  0  0
   -1.1820   -2.5335   -0.0006 H   0  0  0  0  0  0  0  0  0  0  0  0
   -3.6429    1.8356   -0.0001 H   0  0  0  0  0  0  0  0  0  0  0  0
   -3.6135   -2.5170    0.0004 H   0  0  0  0  0  0  0  0  0  0  0  0
    4.1983    2.7185    0.0019 H   0  0  0  0  0  0  0  0  0  0  0  0
    6.0649   -1.1282    0.0017 H   0  0  0  0  0  0  0  0  0  0  0  0
    6.2294    1.3177    0.0032 H   0  0  0  0  0  0  0  0  0  0  0  0
  1 20  1  0  0  0  0
  2 12  2  0  0  0  0
  3 13  2  0  0  0  0
  4  8  1  0  0  0  0
  5  8  2  0  0  0  0
  6  9  1  0  0  0  0
  6 11  1  0  0  0  0
  6 13  1  0  0  0  0
  7 11  2  0  0  0  0
  7 15  1  0  0  0  0
  8 18  1  0  0  0  0
  9 10  2  0  0  0  0
  9 16  1  0  0  0  0
 10 12  1  0  0  0  0
 10 17  1  0  0  0  0
 11 12  1  0  0  0  0
 13 14  1  0  0  0  0
 14 15  2  0  0  0  0
 14 20  1  0  0  0  0
 15 21  1  0  0  0  0
 16 19  2  0  0  0  0
 16 24  1  0  0  0  0
 17 18  2  0  0  0  0
 17 25  1  0  0  0  0
 18 19  1  0  0  0  0
 19 26  1  0  0  0  0
 20 22  2  0  0  0  0
 21 23  2  0  0  0  0
 21 27  1  0  0  0  0
 22 23  1  0  0  0  0
 22 28  1  0  0  0  0
 23 29  1  0  0  0  0
M  CHG  2   4  -1   8   1
M  END
> <PUBCHEM_COMPOUND_CID>
49830967

> <PUBCHEM_CONFORMER_RMSD>
0.6

> <PUBCHEM_CONFORMER_DIVERSEORDER>
1

> <PUBCHEM_MMFF94_PARTIAL_CHARGES>
29
1 -0.11
10 0.09
11 0.51
12 0.48
13 0.54
14 0.09
15 0.18
16 -0.15
17 -0.15
18 0.13
19 -0.15
2 -0.57
20 0.11
21 -0.15
22 -0.15
23 -0.15
24 0.15
25 0.15
26 0.15
27 0.15
28 0.15
29 0.15
3 -0.57
4 -0.52
5 -0.52
6 -0.24
7 -0.63
8 0.91
9 0.12

> <PUBCHEM_EFFECTIVE_ROTOR_COUNT>
1

> <PUBCHEM_PHARMACOPHORE_FEATURES>
10
1 1 hydrophobe
1 2 acceptor
1 3 acceptor
1 4 acceptor
1 4 anion
1 5 acceptor
5 6 9 10 11 12 rings
6 14 15 20 21 22 23 rings
6 6 7 11 13 14 15 rings
6 9 10 16 17 18 19 rings

> <PUBCHEM_HEAVY_ATOM_COUNT>
23

> <PUBCHEM_ATOM_DEF_STEREO_COUNT>
0

> <PUBCHEM_ATOM_UDEF_STEREO_COUNT>
0

> <PUBCHEM_BOND_DEF_STEREO_COUNT>
0

> <PUBCHEM_BOND_UDEF_STEREO_COUNT>
0

> <PUBCHEM_ISOTOPIC_ATOM_COUNT>
0

> <PUBCHEM_COMPONENT_COUNT>
1

> <PUBCHEM_CACTVS_TAUTO_COUNT>
1

> <PUBCHEM_CONFORMER_ID>
02F85C3700000001

> <PUBCHEM_MMFF94_ENERGY>
81.8667

> <PUBCHEM_FEATURE_SELFOVERLAP>
51.054

> <PUBCHEM_SHAPE_FINGERPRINT>
10411042 1 18122344572038667722
10616163 171 18411983555280556286
10906281 52 18265353800795681297
10967382 1 18410574019996525158
11578080 2 17024859356422842830
11963148 33 18336540624765280506
12107183 9 17765722321152409395
12236239 1 17917713517471885819
12403259 226 18265329513378504444
12553582 1 18339909489531078854
12788726 201 17632588127533817649
12838862 33 18339342159233579816
13140716 1 18051404365107510264
13533116 47 18343863299190811314
138480 1 14807693849654138468
13862211 1 18410570699580824859
14341114 176 18410862052913803010
14790565 3 18411425020289978961
15196674 1 18410575050319177797
15442244 35 18194401092138806930
15927050 60 17477768347996071300
17492 89 18267020549256166442
1813 80 17458347433295438516
19141452 34 18271806869326377999
19591789 44 18266741290329119018
200 152 18201999941230515649
20028762 73 18271520910188429070
20645477 70 18409729539242744686
21033650 10 15648178448070736260
21236236 1 18341331090143518633
21267235 1 18410864260526928190
21279426 13 18264766563208565325
21421861 104 18115019680553872690
21792934 111 18339348661692630249
221490 88 18190748732963986027
23402539 116 18272365391279085629
23558518 356 18191035494924287528
23559900 14 18410571829621531936
239999 70 18201727258547862414
2871803 45 18335138674608797546
3004659 81 18259703389661835382
335352 9 18410855464449529279
34797466 226 16271653398249488536
34934 24 18411978100170943406
350125 39 18410855452224308752
3545911 37 18409730673103152070
3886686 26 17181622119768999730
4073 2 18114187488007253555
4214541 1 18410855430158739009
4340502 62 16660640778408829322
4463277 17 18410856560104201625
465052 167 18271812345019355374
5104073 3 18340487763959487672
5283173 99 18114734924581136101
59755656 215 18409452483966703958
9709674 26 18409453548944578242
9981440 41 17112689852810159745

> <PUBCHEM_SHAPE_MULTIPOLES>
440.85
11.71
2.76
0.6
6.66
0.26
0
2.91
0.01
-1.62
0
-0.09
0.03
0

> <PUBCHEM_SHAPE_SELFOVERLAP>
991.979

> <PUBCHEM_SHAPE_VOLUME>
238.5

> <PUBCHEM_COORDINATE_TYPE>
2
5
10

$$$$
