2399
  -OEChem-10052120443D

 38 42  0     0  0  0  0  0  0999 V2000
   -2.2883   -3.1497   -0.8279 O   0  0  0  0  0  0  0  0  0  0  0  0
    2.2891   -3.1512   -0.7737 O   0  0  0  0  0  0  0  0  0  0  0  0
   -2.9511    0.4269    1.9838 N   0  0  0  0  0  0  0  0  0  0  0  0
    2.8777    0.4651    2.0331 N   0  0  0  0  0  0  0  0  0  0  0  0
    0.0025   -3.4971   -0.9881 N   0  0  0  0  0  0  0  0  0  0  0  0
   -0.6819   -1.5791    0.0409 C   0  0  0  0  0  0  0  0  0  0  0  0
    0.6636   -1.5850    0.0670 C   0  0  0  0  0  0  0  0  0  0  0  0
   -1.5981   -0.6146    0.5654 C   0  0  0  0  0  0  0  0  0  0  0  0
    1.5680   -0.6119    0.5960 C   0  0  0  0  0  0  0  0  0  0  0  0
   -2.1367    0.5274   -0.0908 C   0  0  0  0  0  0  0  0  0  0  0  0
    2.1452    0.5055   -0.0738 C   0  0  0  0  0  0  0  0  0  0  0  0
   -2.9822    1.1632    0.8209 C   0  0  0  0  0  0  0  0  0  0  0  0
    2.9613    1.1630    0.8493 C   0  0  0  0  0  0  0  0  0  0  0  0
   -1.1291   -2.8207   -0.6406 C   0  0  0  0  0  0  0  0  0  0  0  0
    1.1259   -2.8270   -0.6036 C   0  0  0  0  0  0  0  0  0  0  0  0
   -2.1173   -0.6492    1.8391 C   0  0  0  0  0  0  0  0  0  0  0  0
    2.0394   -0.6079    1.8905 C   0  0  0  0  0  0  0  0  0  0  0  0
   -1.9856    1.0829   -1.3768 C   0  0  0  0  0  0  0  0  0  0  0  0
    2.0496    1.0205   -1.3818 C   0  0  0  0  0  0  0  0  0  0  0  0
   -3.6870    2.3315    0.5095 C   0  0  0  0  0  0  0  0  0  0  0  0
    3.6894    2.3142    0.5285 C   0  0  0  0  0  0  0  0  0  0  0  0
   -2.6843    2.2511   -1.7024 C   0  0  0  0  0  0  0  0  0  0  0  0
    2.7723    2.1713   -1.7172 C   0  0  0  0  0  0  0  0  0  0  0  0
   -3.5214    2.8641   -0.7722 C   0  0  0  0  0  0  0  0  0  0  0  0
    3.5789    2.8066   -0.7751 C   0  0  0  0  0  0  0  0  0  0  0  0
   -1.9709   -1.3402    2.6582 H   0  0  0  0  0  0  0  0  0  0  0  0
    1.8550   -1.2707    2.7251 H   0  0  0  0  0  0  0  0  0  0  0  0
   -3.4689    0.6496    2.8226 H   0  0  0  0  0  0  0  0  0  0  0  0
    3.3649    0.7102    2.8839 H   0  0  0  0  0  0  0  0  0  0  0  0
    0.0080   -4.3873   -1.4729 H   0  0  0  0  0  0  0  0  0  0  0  0
   -1.3383    0.6171   -2.1145 H   0  0  0  0  0  0  0  0  0  0  0  0
    1.4264    0.5370   -2.1287 H   0  0  0  0  0  0  0  0  0  0  0  0
   -4.3387    2.8094    1.2330 H   0  0  0  0  0  0  0  0  0  0  0  0
    4.3176    2.8095    1.2612 H   0  0  0  0  0  0  0  0  0  0  0  0
   -2.5717    2.6839   -2.6930 H   0  0  0  0  0  0  0  0  0  0  0  0
    2.7023    2.5728   -2.7247 H   0  0  0  0  0  0  0  0  0  0  0  0
   -4.0546    3.7709   -1.0463 H   0  0  0  0  0  0  0  0  0  0  0  0
    4.1314    3.6992   -1.0570 H   0  0  0  0  0  0  0  0  0  0  0  0
  1 14  2  0  0  0  0
  2 15  2  0  0  0  0
  3 12  1  0  0  0  0
  3 16  1  0  0  0  0
  3 28  1  0  0  0  0
  4 13  1  0  0  0  0
  4 17  1  0  0  0  0
  4 29  1  0  0  0  0
  5 14  1  0  0  0  0
  5 15  1  0  0  0  0
  5 30  1  0  0  0  0
  6  7  2  0  0  0  0
  6  8  1  0  0  0  0
  6 14  1  0  0  0  0
  7  9  1  0  0  0  0
  7 15  1  0  0  0  0
  8 10  1  0  0  0  0
  8 16  2  0  0  0  0
  9 11  1  0  0  0  0
  9 17  2  0  0  0  0
 10 12  1  0  0  0  0
 10 18  2  0  0  0  0
 11 13  1  0  0  0  0
 11 19  2  0  0  0  0
 12 20  2  0  0  0  0
 13 21  2  0  0  0  0
 16 26  1  0  0  0  0
 17 27  1  0  0  0  0
 18 22  1  0  0  0  0
 18 31  1  0  0  0  0
 19 23  1  0  0  0  0
 19 32  1  0  0  0  0
 20 24  1  0  0  0  0
 20 33  1  0  0  0  0
 21 25  1  0  0  0  0
 21 34  1  0  0  0  0
 22 24  2  0  0  0  0
 22 35  1  0  0  0  0
 23 25  2  0  0  0  0
 23 36  1  0  0  0  0
 24 37  1  0  0  0  0
 25 38  1  0  0  0  0
M  END
> <PUBCHEM_COMPOUND_CID>
2399

> <PUBCHEM_CONFORMER_RMSD>
0.6

> <PUBCHEM_CONFORMER_DIVERSEORDER>
1
8
9
10
3
2
6
5
7
4

> <PUBCHEM_MMFF94_PARTIAL_CHARGES>
36
1 -0.57
12 -0.15
13 -0.15
14 0.62
15 0.62
16 -0.3
17 -0.3
18 -0.15
19 -0.15
2 -0.57
20 -0.15
21 -0.15
22 -0.15
23 -0.15
24 -0.15
25 -0.15
26 0.15
27 0.15
28 0.27
29 0.27
3 0.03
30 0.37
31 0.15
32 0.15
33 0.15
34 0.15
35 0.15
36 0.15
37 0.15
38 0.15
4 0.03
5 -0.49
6 0.06
7 0.06
8 -0.05
9 -0.05

> <PUBCHEM_EFFECTIVE_ROTOR_COUNT>
2.2

> <PUBCHEM_PHARMACOPHORE_FEATURES>
12
1 1 acceptor
1 2 acceptor
1 3 cation
1 3 donor
1 4 cation
1 4 donor
1 5 donor
5 3 8 10 12 16 rings
5 4 9 11 13 17 rings
5 5 6 7 14 15 rings
6 10 12 18 20 22 24 rings
6 11 13 19 21 23 25 rings

> <PUBCHEM_HEAVY_ATOM_COUNT>
25

> <PUBCHEM_ATOM_DEF_STEREO_COUNT>
0

> <PUBCHEM_ATOM_UDEF_STEREO_COUNT>
0

> <PUBCHEM_BOND_DEF_STEREO_COUNT>
0

> <PUBCHEM_BOND_UDEF_STEREO_COUNT>
0

> <PUBCHEM_ISOTOPIC_ATOM_COUNT>
0

> <PUBCHEM_COMPONENT_COUNT>
1

> <PUBCHEM_CACTVS_TAUTO_COUNT>
7

> <PUBCHEM_CONFORMER_ID>
0000095F00000001

> <PUBCHEM_MMFF94_ENERGY>
52.9182

> <PUBCHEM_FEATURE_SELFOVERLAP>
61.081

> <PUBCHEM_SHAPE_FINGERPRINT>
10165383 225 17983050913293863561
10871710 139 17901675087223174157
11221954 11 18114181874353121877
11582403 64 16593607810881327629
11640471 11 18188480406248034024
12035758 1 18049707534924139282
12156800 1 11156586823136460235
12173636 292 18271529813538692317
12403259 327 16951967237359616233
12633257 1 17313377864460786937
12788726 201 18124861602792453295
128993 33 18335714874288822944
13009979 54 17613404038374871466
13134695 92 17691401906473184711
13149001 5 17985567575219889390
13583140 156 17271985843970590744
13681431 1 17552936030536453206
13911987 19 17692558627018462526
13965767 371 18334285457875972544
14251751 93 18262809578655991500
14713325 29 17612064816005847414
14840074 17 18047207507712412529
14856354 85 16588030147571472080
15131766 46 13222249915095507519
151778 21 18268168490491735881
1601671 61 18191023409650817850
17357779 13 17404577779933923262
17492 54 18046040908642985863
18981168 100 18341338828872148206
20715895 44 17899942055635411911
21475661 188 17536580812765416205
21860390 5 17832412103956327165
21987440 362 17898574168755927828
22907989 373 18124297557305847277
23419403 2 16603584882344783930
23558518 356 18409438181393831363
23559900 14 18048043974052567345
238 59 18194955241377113461
25222932 49 15039540647037196341
350125 39 18342465845476444511
35225 105 17986661769645750709
469060 322 17905900519246851435
474 4 18194390096748586265
5252454 2 18270701846897001608
57527585 103 15515611894779209280
5845 1 10830327492317632678
6287921 2 18196369222057680549
7097593 13 17023454257740139504
81228 2 17692821797007398466
9862522 239 18261668268322387052

> <PUBCHEM_SHAPE_MULTIPOLES>
487.81
6.49
4.32
1.82
0.06
2.13
-0.46
-6.42
-0.75
-0.08
2.27
0.04
-0.26
0

> <PUBCHEM_SHAPE_SELFOVERLAP>
1127.893

> <PUBCHEM_SHAPE_VOLUME>
252.3

> <PUBCHEM_COORDINATE_TYPE>
2
5
10

$$$$
