24905195
  -OEChem-10052115153D

 37 40  0     0  0  0  0  0  0999 V2000
   -5.0630    0.2340    0.5134 O   0  0  0  0  0  0  0  0  0  0  0  0
    2.4044    1.0257   -0.0378 N   0  0  0  0  0  0  0  0  0  0  0  0
    1.1189    1.4016    0.0951 N   0  0  0  0  0  0  0  0  0  0  0  0
    3.7351   -0.9895   -0.2124 N   0  0  0  0  0  0  0  0  0  0  0  0
    2.3499   -2.9955   -0.1243 N   0  0  0  0  0  0  0  0  0  0  0  0
   -0.0245   -2.9143    0.1060 N   0  0  0  0  0  0  0  0  0  0  0  0
    3.4362    2.0326   -0.1147 C   0  0  0  0  0  0  0  0  0  0  0  0
    1.3094   -0.8747    0.0248 C   0  0  0  0  0  0  0  0  0  0  0  0
    2.5750   -0.3260   -0.0851 C   0  0  0  0  0  0  0  0  0  0  0  0
    0.4570    0.2399    0.1327 C   0  0  0  0  0  0  0  0  0  0  0  0
   -0.9736    0.2369    0.2713 C   0  0  0  0  0  0  0  0  0  0  0  0
    3.5019    2.8703    1.1648 C   0  0  0  0  0  0  0  0  0  0  0  0
    3.2589    2.9276   -1.3437 C   0  0  0  0  0  0  0  0  0  0  0  0
    1.2176   -2.2625    0.0020 C   0  0  0  0  0  0  0  0  0  0  0  0
   -1.7760    0.2640   -0.8777 C   0  0  0  0  0  0  0  0  0  0  0  0
   -3.1734    0.2615   -0.7247 C   0  0  0  0  0  0  0  0  0  0  0  0
   -1.5426    0.2081    1.5471 C   0  0  0  0  0  0  0  0  0  0  0  0
   -3.7011    0.2321    0.5621 C   0  0  0  0  0  0  0  0  0  0  0  0
   -2.9296    0.2049    1.7227 C   0  0  0  0  0  0  0  0  0  0  0  0
    3.5216   -2.3231   -0.2223 C   0  0  0  0  0  0  0  0  0  0  0  0
   -4.2915    0.2822   -1.5997 C   0  0  0  0  0  0  0  0  0  0  0  0
   -5.4105    0.2644   -0.7996 C   0  0  0  0  0  0  0  0  0  0  0  0
    4.3950    1.5106   -0.2195 H   0  0  0  0  0  0  0  0  0  0  0  0
    2.5860    3.4525    1.3156 H   0  0  0  0  0  0  0  0  0  0  0  0
    4.3428    3.5708    1.1254 H   0  0  0  0  0  0  0  0  0  0  0  0
    3.6371    2.2298    2.0434 H   0  0  0  0  0  0  0  0  0  0  0  0
    2.3337    3.5121   -1.2895 H   0  0  0  0  0  0  0  0  0  0  0  0
    3.2202    2.3281   -2.2600 H   0  0  0  0  0  0  0  0  0  0  0  0
    4.0948    3.6293   -1.4346 H   0  0  0  0  0  0  0  0  0  0  0  0
   -1.3354    0.2861   -1.8711 H   0  0  0  0  0  0  0  0  0  0  0  0
   -0.9090    0.1868    2.4322 H   0  0  0  0  0  0  0  0  0  0  0  0
   -3.3782    0.1822    2.7086 H   0  0  0  0  0  0  0  0  0  0  0  0
    4.4080   -2.9402   -0.3221 H   0  0  0  0  0  0  0  0  0  0  0  0
   -4.2822    0.3069   -2.6801 H   0  0  0  0  0  0  0  0  0  0  0  0
   -0.8848   -2.3949    0.2001 H   0  0  0  0  0  0  0  0  0  0  0  0
   -0.0463   -3.9251    0.0843 H   0  0  0  0  0  0  0  0  0  0  0  0
   -6.4717    0.2696   -1.0010 H   0  0  0  0  0  0  0  0  0  0  0  0
  1 18  1  0  0  0  0
  1 22  1  0  0  0  0
  2  3  1  0  0  0  0
  2  7  1  0  0  0  0
  2  9  1  0  0  0  0
  3 10  2  0  0  0  0
  4  9  2  0  0  0  0
  4 20  1  0  0  0  0
  5 14  1  0  0  0  0
  5 20  2  0  0  0  0
  6 14  1  0  0  0  0
  6 35  1  0  0  0  0
  6 36  1  0  0  0  0
  7 12  1  0  0  0  0
  7 13  1  0  0  0  0
  7 23  1  0  0  0  0
  8  9  1  0  0  0  0
  8 10  1  0  0  0  0
  8 14  2  0  0  0  0
 10 11  1  0  0  0  0
 11 15  2  0  0  0  0
 11 17  1  0  0  0  0
 12 24  1  0  0  0  0
 12 25  1  0  0  0  0
 12 26  1  0  0  0  0
 13 27  1  0  0  0  0
 13 28  1  0  0  0  0
 13 29  1  0  0  0  0
 15 16  1  0  0  0  0
 15 30  1  0  0  0  0
 16 18  2  0  0  0  0
 16 21  1  0  0  0  0
 17 19  2  0  0  0  0
 17 31  1  0  0  0  0
 18 19  1  0  0  0  0
 19 32  1  0  0  0  0
 20 33  1  0  0  0  0
 21 22  2  0  0  0  0
 21 34  1  0  0  0  0
 22 37  1  0  0  0  0
M  END
> <PUBCHEM_COMPOUND_CID>
24905195

> <PUBCHEM_CONFORMER_RMSD>
0.6

> <PUBCHEM_CONFORMER_DIVERSEORDER>
2
5
4
3
6
1

> <PUBCHEM_MMFF94_PARTIAL_CHARGES>
26
1 -0.28
10 0.23
11 0.05
14 0.41
15 -0.15
17 -0.15
18 0.14
19 -0.15
2 0.31
20 0.47
21 -0.15
22 -0.01
3 -0.71
30 0.15
31 0.15
32 0.15
33 0.15
34 0.15
35 0.4
36 0.4
37 0.15
4 -0.57
5 -0.62
6 -0.9
7 0.26
9 0.11

> <PUBCHEM_EFFECTIVE_ROTOR_COUNT>
2

> <PUBCHEM_PHARMACOPHORE_FEATURES>
11
1 1 acceptor
1 3 acceptor
1 6 cation
1 6 donor
3 2 4 9 cation
3 4 5 20 cation
3 7 12 13 hydrophobe
5 1 16 18 21 22 rings
5 2 3 8 9 10 rings
6 11 15 16 17 18 19 rings
6 4 5 8 9 14 20 rings

> <PUBCHEM_HEAVY_ATOM_COUNT>
22

> <PUBCHEM_ATOM_DEF_STEREO_COUNT>
0

> <PUBCHEM_ATOM_UDEF_STEREO_COUNT>
0

> <PUBCHEM_BOND_DEF_STEREO_COUNT>
0

> <PUBCHEM_BOND_UDEF_STEREO_COUNT>
0

> <PUBCHEM_ISOTOPIC_ATOM_COUNT>
0

> <PUBCHEM_COMPONENT_COUNT>
1

> <PUBCHEM_CACTVS_TAUTO_COUNT>
5

> <PUBCHEM_CONFORMER_ID>
017C05EB00000002

> <PUBCHEM_MMFF94_ENERGY>
45.7896

> <PUBCHEM_FEATURE_SELFOVERLAP>
56.202

> <PUBCHEM_SHAPE_FINGERPRINT>
10366900 7 17895483505239786023
11471102 20 18409731733765038254
11725454 13 17677871591401948905
12236239 1 17704070660042404035
12403259 415 17894356570767830665
12616971 3 18060422383252883889
12730499 353 18336835289701361025
12788726 201 16748178074257705802
13009979 54 17344636932957186306
13134695 92 18189619337259816870
13140716 1 18338796836057952850
13533116 47 18342460335723681881
13631057 29 17769644631912551759
13862211 1 18194964046456559766
13911987 19 18120384399686788261
13955234 65 18411697681898521898
15375358 24 17749385992599735165
15842332 3 17702962330910040977
15961568 22 16733553839221408389
16752209 62 16486969554105954309
17134986 127 18118414062576315388
17138139 8 17556550443670375351
17818456 19 17270893736238932401
1813 80 17914347775172789526
18222031 100 18198903609329404422
200 152 18200308823733131435
204376 136 18265054806652924336
20554085 129 17701802488388803072
20645477 70 18335138678624274467
21065201 7 16515691026579174595
21120745 212 11014163740838718842
2255824 54 18342179934146280542
23557571 272 17168440323913556243
23559900 14 16588310458058105106
23598291 2 17917163696996449513
2748010 2 18193574469748032930
283562 15 17760655768242747834
312423 11 18059024895057258385
4340502 62 18341889757401966627
469060 322 17758684729950390523
474 4 18271239529837330416
495365 180 18408316705012458336
5104073 3 18409169922352445667
5281201 14 18260546676125239973
6034566 193 17756155831299295772
633830 44 18057912232113027785
7471813 234 18059287652497966904
7615 1 17917437471249708177
77492 1 17703793587443991251
81228 2 17112696991414063504
8272917 22 18412549777819436373
84936 182 18202562903916449760

> <PUBCHEM_SHAPE_MULTIPOLES>
421.98
9.47
2.99
1.26
8.77
0.78
0.16
-3
-1.58
-5.73
-0.22
0.98
-0.56
0.17

> <PUBCHEM_SHAPE_SELFOVERLAP>
948.47

> <PUBCHEM_SHAPE_VOLUME>
224.6

> <PUBCHEM_COORDINATE_TYPE>
2
5
10

$$$$
