9891182
  -OEChem-10052115153D

 52 54  0     0  0  0  0  0  0999 V2000
    5.7421    0.9545    0.7505 O   0  0  0  0  0  0  0  0  0  0  0  0
    2.6029   -1.9243   -1.4405 O   0  0  0  0  0  0  0  0  0  0  0  0
    5.1344   -1.4897   -0.4022 O   0  0  0  0  0  0  0  0  0  0  0  0
   -4.9669   -2.3166   -0.9419 O   0  0  0  0  0  0  0  0  0  0  0  0
   -4.8177    3.5444    0.2115 O   0  5  0  0  0  0  0  0  0  0  0  0
   -4.8258    1.3492    0.2183 O   0  0  0  0  0  0  0  0  0  0  0  0
    1.2903    2.5260   -0.1705 N   0  0  0  0  0  0  0  0  0  0  0  0
   -2.7044    0.0362    0.0889 N   0  0  0  0  0  0  0  0  0  0  0  0
   -0.6928    1.2787   -0.0415 N   0  0  0  0  0  0  0  0  0  0  0  0
   -0.7444    3.6879   -0.0460 N   0  0  0  0  0  0  0  0  0  0  0  0
   -4.2133    2.4445    0.1766 N   0  3  0  0  0  0  0  0  0  0  0  0
   -3.1880   -2.3753   -2.3878 N   0  0  0  0  0  0  0  0  0  0  0  0
    2.2626    1.5102   -0.2295 C   0  0  0  0  0  0  0  0  0  0  0  0
    1.9547    0.2787   -0.8113 C   0  0  0  0  0  0  0  0  0  0  0  0
    3.5382    1.7307    0.2937 C   0  0  0  0  0  0  0  0  0  0  0  0
    4.5019    0.7240    0.2355 C   0  0  0  0  0  0  0  0  0  0  0  0
    2.9184   -0.7282   -0.8695 C   0  0  0  0  0  0  0  0  0  0  0  0
    4.1921   -0.5055   -0.3460 C   0  0  0  0  0  0  0  0  0  0  0  0
   -2.3264   -1.2291    0.5913 C   0  0  0  0  0  0  0  0  0  0  0  0
   -2.0444    1.2777    0.0436 C   0  0  0  0  0  0  0  0  0  0  0  0
   -0.1185    2.4961   -0.0816 C   0  0  0  0  0  0  0  0  0  0  0  0
   -2.8188   -2.4027    0.0202 C   0  0  0  0  0  0  0  0  0  0  0  0
   -2.7978    2.4390    0.0873 C   0  0  0  0  0  0  0  0  0  0  0  0
   -1.4483   -1.2951    1.6731 C   0  0  0  0  0  0  0  0  0  0  0  0
   -2.4328   -3.6420    0.5308 C   0  0  0  0  0  0  0  0  0  0  0  0
   -2.0893    3.6222    0.0390 C   0  0  0  0  0  0  0  0  0  0  0  0
   -1.0623   -2.5344    2.1836 C   0  0  0  0  0  0  0  0  0  0  0  0
   -1.5546   -3.7078    1.6127 C   0  0  0  0  0  0  0  0  0  0  0  0
   -3.7376   -2.3680   -1.1107 C   0  0  0  0  0  0  0  0  0  0  0  0
    5.6615   -1.9521    0.8390 C   0  0  0  0  0  0  0  0  0  0  0  0
    6.7194    1.5001   -0.1331 C   0  0  0  0  0  0  0  0  0  0  0  0
    2.0654   -2.9296   -0.5835 C   0  0  0  0  0  0  0  0  0  0  0  0
    0.9892    0.0831   -1.2674 H   0  0  0  0  0  0  0  0  0  0  0  0
    3.7854    2.6866    0.7500 H   0  0  0  0  0  0  0  0  0  0  0  0
    1.6666    3.4628   -0.0600 H   0  0  0  0  0  0  0  0  0  0  0  0
   -3.5376    0.0110   -0.4913 H   0  0  0  0  0  0  0  0  0  0  0  0
   -1.0600   -0.3964    2.1448 H   0  0  0  0  0  0  0  0  0  0  0  0
   -2.8093   -4.5639    0.0949 H   0  0  0  0  0  0  0  0  0  0  0  0
   -2.5703    4.5952    0.0662 H   0  0  0  0  0  0  0  0  0  0  0  0
   -0.3799   -2.5859    3.0270 H   0  0  0  0  0  0  0  0  0  0  0  0
   -1.2539   -4.6727    2.0103 H   0  0  0  0  0  0  0  0  0  0  0  0
    5.8663   -3.0221    0.7396 H   0  0  0  0  0  0  0  0  0  0  0  0
    4.9559   -1.8159    1.6660 H   0  0  0  0  0  0  0  0  0  0  0  0
    6.6062   -1.4464    1.0571 H   0  0  0  0  0  0  0  0  0  0  0  0
    7.6564    1.6115    0.4195 H   0  0  0  0  0  0  0  0  0  0  0  0
    6.8910    0.8294   -0.9808 H   0  0  0  0  0  0  0  0  0  0  0  0
    6.4046    2.4854   -0.4910 H   0  0  0  0  0  0  0  0  0  0  0  0
    1.0979   -2.6095   -0.1861 H   0  0  0  0  0  0  0  0  0  0  0  0
    1.9172   -3.8389   -1.1724 H   0  0  0  0  0  0  0  0  0  0  0  0
    2.7544   -3.1521    0.2372 H   0  0  0  0  0  0  0  0  0  0  0  0
   -3.7803   -2.3457   -3.2111 H   0  0  0  0  0  0  0  0  0  0  0  0
   -2.1854   -2.4087   -2.5431 H   0  0  0  0  0  0  0  0  0  0  0  0
  1 16  1  0  0  0  0
  1 31  1  0  0  0  0
  2 17  1  0  0  0  0
  2 32  1  0  0  0  0
  3 18  1  0  0  0  0
  3 30  1  0  0  0  0
  4 29  2  0  0  0  0
  5 11  1  0  0  0  0
  6 11  2  0  0  0  0
  7 13  1  0  0  0  0
  7 21  1  0  0  0  0
  7 35  1  0  0  0  0
  8 19  1  0  0  0  0
  8 20  1  0  0  0  0
  8 36  1  0  0  0  0
  9 20  2  0  0  0  0
  9 21  1  0  0  0  0
 10 21  2  0  0  0  0
 10 26  1  0  0  0  0
 11 23  1  0  0  0  0
 12 29  1  0  0  0  0
 12 51  1  0  0  0  0
 12 52  1  0  0  0  0
 13 14  2  0  0  0  0
 13 15  1  0  0  0  0
 14 17  1  0  0  0  0
 14 33  1  0  0  0  0
 15 16  2  0  0  0  0
 15 34  1  0  0  0  0
 16 18  1  0  0  0  0
 17 18  2  0  0  0  0
 19 22  1  0  0  0  0
 19 24  2  0  0  0  0
 20 23  1  0  0  0  0
 22 25  2  0  0  0  0
 22 29  1  0  0  0  0
 23 26  2  0  0  0  0
 24 27  1  0  0  0  0
 24 37  1  0  0  0  0
 25 28  1  0  0  0  0
 25 38  1  0  0  0  0
 26 39  1  0  0  0  0
 27 28  2  0  0  0  0
 27 40  1  0  0  0  0
 28 41  1  0  0  0  0
 30 42  1  0  0  0  0
 30 43  1  0  0  0  0
 30 44  1  0  0  0  0
 31 45  1  0  0  0  0
 31 46  1  0  0  0  0
 31 47  1  0  0  0  0
 32 48  1  0  0  0  0
 32 49  1  0  0  0  0
 32 50  1  0  0  0  0
M  CHG  2   5  -1  11   1
M  END
> <PUBCHEM_COMPOUND_CID>
9891182

> <PUBCHEM_CONFORMER_RMSD>
1

> <PUBCHEM_CONFORMER_DIVERSEORDER>
1
73
82
44
34
67
61
85
76
81
17
90
36
86
93
18
64
58
9
63
22
75
12
92
46
71
78
79
25
19
51
35
84
21
59
69
54
28
56
62
50
30
49
20
68
41
37
48
80
3
60
47
72
6
70
15
66
83
8
77
7
57
27
42
23
11
24
52
33
39
53
88
55
2
43
45
13
65
26
32
74
91
89
31
38
40
14
4
87
10
5
29
16

> <PUBCHEM_MMFF94_PARTIAL_CHARGES>
43
1 -0.36
10 -0.62
11 0.91
12 -0.8
13 0.1
14 -0.15
15 -0.15
16 0.08
17 0.08
18 0.08
19 0.1
2 -0.36
20 0.41
21 0.72
22 0.09
23 0.13
24 -0.15
25 -0.15
26 0.16
27 -0.15
28 -0.15
29 0.54
3 -0.36
30 0.28
31 0.28
32 0.28
33 0.15
34 0.15
35 0.4
36 0.4
37 0.15
38 0.15
39 0.15
4 -0.57
40 0.15
41 0.15
5 -0.52
51 0.37
52 0.37
6 -0.52
7 -0.6
8 -0.6
9 -0.62

> <PUBCHEM_EFFECTIVE_ROTOR_COUNT>
9

> <PUBCHEM_PHARMACOPHORE_FEATURES>
14
1 1 acceptor
1 12 donor
1 2 acceptor
1 3 acceptor
1 4 acceptor
1 5 acceptor
1 5 anion
1 6 acceptor
1 7 donor
1 8 donor
4 7 9 10 21 cation
6 13 14 15 16 17 18 rings
6 19 22 24 25 27 28 rings
6 9 10 20 21 23 26 rings

> <PUBCHEM_HEAVY_ATOM_COUNT>
32

> <PUBCHEM_ATOM_DEF_STEREO_COUNT>
0

> <PUBCHEM_ATOM_UDEF_STEREO_COUNT>
0

> <PUBCHEM_BOND_DEF_STEREO_COUNT>
0

> <PUBCHEM_BOND_UDEF_STEREO_COUNT>
0

> <PUBCHEM_ISOTOPIC_ATOM_COUNT>
0

> <PUBCHEM_COMPONENT_COUNT>
1

> <PUBCHEM_CACTVS_TAUTO_COUNT>
39

> <PUBCHEM_CONFORMER_ID>
0096ED6E00000001

> <PUBCHEM_MMFF94_ENERGY>
159.3743

> <PUBCHEM_FEATURE_SELFOVERLAP>
71.139

> <PUBCHEM_SHAPE_FINGERPRINT>
11227688 84 17257943017965671958
11297010 23 17181638590452667469
11578080 2 17203036517310974009
12156800 1 17054374719715899311
12422481 6 17983332372087861067
12553582 1 18121243101066281263
12788726 201 18337662109703186083
13402501 40 18411704262052182560
13911987 19 16748195172712941693
140371 6 17902232544219651561
14659021 117 18336536222259460016
14725015 67 18192428795332056515
14790565 3 17979359651302736161
14866123 147 18409731751393274731
15351339 4 18115286965407251027
15361156 5 18337687347157636972
15927050 60 18267018354753990973
17980427 23 17895483626132062188
19315092 285 16555649671392720003
19591789 44 18264497196119325177
19930381 70 17402052691794649299
20642791 13 18411418431799305229
20764821 26 18335148591509137418
21133410 171 17474052978132088962
21133410 52 16686540067397153350
23536364 44 18264185042349234983
23559900 14 17902505226934038369
3380486 145 18341349850001466521
38695281 34 18051415068229880265
4073 2 18408044027110127200
4403749 210 18199737206963494584
508706 21 18338244855097824086
5171179 24 17914887866978218488
5309563 4 17833560367536391971
6036956 94 17973731568701399772
613672 6 18120925376692212770
9709674 26 18337958990432155536

> <PUBCHEM_SHAPE_MULTIPOLES>
593.44
12.07
5.44
1.34
14.15
0.84
-0.02
0.29
-0.67
-6.02
0.7
-0.82
-1.51
-0.28

> <PUBCHEM_SHAPE_SELFOVERLAP>
1280.432

> <PUBCHEM_SHAPE_VOLUME>
323.7

> <PUBCHEM_COORDINATE_TYPE>
2
5
10

$$$$
