49830539
  -OEChem-10052115183D

 53 57  0     0  0  0  0  0  0999 V2000
    4.8640    1.5600   -0.8902 O   0  0  0  0  0  0  0  0  0  0  0  0
    5.2452   -3.7714   -0.4555 O   0  0  0  0  0  0  0  0  0  0  0  0
   -5.8215    0.6156    1.3625 O   0  0  0  0  0  0  0  0  0  0  0  0
    2.9785   -3.9289    0.1563 N   0  0  0  0  0  0  0  0  0  0  0  0
   -3.4927    0.3587    1.4336 N   0  0  0  0  0  0  0  0  0  0  0  0
   -4.8147    0.2424   -0.6335 N   0  0  0  0  0  0  0  0  0  0  0  0
    8.7385    4.2062    0.3289 N   0  0  0  0  0  0  0  0  0  0  0  0
    2.4954   -1.6948    0.0604 C   0  0  0  0  0  0  0  0  0  0  0  0
    1.9311   -0.4336    0.0827 C   0  0  0  0  0  0  0  0  0  0  0  0
    3.8396   -1.8588   -0.2775 C   0  0  0  0  0  0  0  0  0  0  0  0
    1.8705   -3.0140    0.3568 C   0  0  0  0  0  0  0  0  0  0  0  0
    4.1538   -3.2893   -0.2173 C   0  0  0  0  0  0  0  0  0  0  0  0
    0.5423   -0.2304    0.4282 C   0  0  0  0  0  0  0  0  0  0  0  0
    2.7440    0.6580   -0.2410 C   0  0  0  0  0  0  0  0  0  0  0  0
    4.6638   -0.7991   -0.6010 C   0  0  0  0  0  0  0  0  0  0  0  0
    4.0980    0.4766   -0.5797 C   0  0  0  0  0  0  0  0  0  0  0  0
   -0.4344   -0.2488   -0.5676 C   0  0  0  0  0  0  0  0  0  0  0  0
    0.1786   -0.0167    1.7578 C   0  0  0  0  0  0  0  0  0  0  0  0
    6.2555    1.4769   -0.5885 C   0  0  0  0  0  0  0  0  0  0  0  0
   -2.1380    0.1605    1.0957 C   0  0  0  0  0  0  0  0  0  0  0  0
   -1.7745   -0.0533   -0.2339 C   0  0  0  0  0  0  0  0  0  0  0  0
   -1.1615    0.1788    2.0915 C   0  0  0  0  0  0  0  0  0  0  0  0
    6.7822    2.8771   -0.3046 C   0  0  0  0  0  0  0  0  0  0  0  0
    8.2674    2.8568    0.0419 C   0  0  0  0  0  0  0  0  0  0  0  0
   -4.6724    0.3940    0.6649 C   0  0  0  0  0  0  0  0  0  0  0  0
   -6.7891    0.6019    0.3991 C   0  0  0  0  0  0  0  0  0  0  0  0
   -6.1694    0.3733   -0.8206 C   0  0  0  0  0  0  0  0  0  0  0  0
   -8.1562    0.7806    0.5714 C   0  0  0  0  0  0  0  0  0  0  0  0
   -6.9562    0.3137   -1.9798 C   0  0  0  0  0  0  0  0  0  0  0  0
   -8.9267    0.7186   -0.5947 C   0  0  0  0  0  0  0  0  0  0  0  0
   -8.3410    0.4896   -1.8460 C   0  0  0  0  0  0  0  0  0  0  0  0
    1.5330   -3.0976    1.3929 H   0  0  0  0  0  0  0  0  0  0  0  0
    1.0747   -3.2714   -0.3468 H   0  0  0  0  0  0  0  0  0  0  0  0
    2.9037   -4.9340    0.2768 H   0  0  0  0  0  0  0  0  0  0  0  0
    2.3350    1.6671   -0.2341 H   0  0  0  0  0  0  0  0  0  0  0  0
    5.6937   -0.9874   -0.8804 H   0  0  0  0  0  0  0  0  0  0  0  0
   -0.1672   -0.4149   -1.6087 H   0  0  0  0  0  0  0  0  0  0  0  0
    0.9274    0.0000    2.5463 H   0  0  0  0  0  0  0  0  0  0  0  0
    6.4384    0.8619    0.3023 H   0  0  0  0  0  0  0  0  0  0  0  0
    6.7819    1.0430   -1.4465 H   0  0  0  0  0  0  0  0  0  0  0  0
   -2.4947   -0.0767   -1.0430 H   0  0  0  0  0  0  0  0  0  0  0  0
   -1.4300    0.3441    3.1318 H   0  0  0  0  0  0  0  0  0  0  0  0
    6.5989    3.5157   -1.1785 H   0  0  0  0  0  0  0  0  0  0  0  0
    6.2035    3.3204    0.5163 H   0  0  0  0  0  0  0  0  0  0  0  0
   -3.6260    0.5030    2.4325 H   0  0  0  0  0  0  0  0  0  0  0  0
    8.4420    2.2252    0.9194 H   0  0  0  0  0  0  0  0  0  0  0  0
    8.8450    2.4393   -0.7901 H   0  0  0  0  0  0  0  0  0  0  0  0
    9.7417    4.1832    0.5073 H   0  0  0  0  0  0  0  0  0  0  0  0
    8.6077    4.7975   -0.4909 H   0  0  0  0  0  0  0  0  0  0  0  0
   -8.5992    0.9570    1.5436 H   0  0  0  0  0  0  0  0  0  0  0  0
   -6.5131    0.1370   -2.9542 H   0  0  0  0  0  0  0  0  0  0  0  0
  -10.0039    0.8508   -0.5277 H   0  0  0  0  0  0  0  0  0  0  0  0
   -8.9712    0.4475   -2.7310 H   0  0  0  0  0  0  0  0  0  0  0  0
  1 16  1  0  0  0  0
  1 19  1  0  0  0  0
  2 12  2  0  0  0  0
  3 25  1  0  0  0  0
  3 26  1  0  0  0  0
  4 11  1  0  0  0  0
  4 12  1  0  0  0  0
  4 34  1  0  0  0  0
  5 20  1  0  0  0  0
  5 25  1  0  0  0  0
  5 45  1  0  0  0  0
  6 25  2  0  0  0  0
  6 27  1  0  0  0  0
  7 24  1  0  0  0  0
  7 48  1  0  0  0  0
  7 49  1  0  0  0  0
  8  9  2  0  0  0  0
  8 10  1  0  0  0  0
  8 11  1  0  0  0  0
  9 13  1  0  0  0  0
  9 14  1  0  0  0  0
 10 12  1  0  0  0  0
 10 15  2  0  0  0  0
 11 32  1  0  0  0  0
 11 33  1  0  0  0  0
 13 17  2  0  0  0  0
 13 18  1  0  0  0  0
 14 16  2  0  0  0  0
 14 35  1  0  0  0  0
 15 16  1  0  0  0  0
 15 36  1  0  0  0  0
 17 21  1  0  0  0  0
 17 37  1  0  0  0  0
 18 22  2  0  0  0  0
 18 38  1  0  0  0  0
 19 23  1  0  0  0  0
 19 39  1  0  0  0  0
 19 40  1  0  0  0  0
 20 21  2  0  0  0  0
 20 22  1  0  0  0  0
 21 41  1  0  0  0  0
 22 42  1  0  0  0  0
 23 24  1  0  0  0  0
 23 43  1  0  0  0  0
 23 44  1  0  0  0  0
 24 46  1  0  0  0  0
 24 47  1  0  0  0  0
 26 27  1  0  0  0  0
 26 28  2  0  0  0  0
 27 29  2  0  0  0  0
 28 30  1  0  0  0  0
 28 50  1  0  0  0  0
 29 31  1  0  0  0  0
 29 51  1  0  0  0  0
 30 31  2  0  0  0  0
 30 52  1  0  0  0  0
 31 53  1  0  0  0  0
M  END
> <PUBCHEM_COMPOUND_CID>
49830539

> <PUBCHEM_CONFORMER_RMSD>
1

> <PUBCHEM_CONFORMER_DIVERSEORDER>
1
30
39
23
60
45
26
35
3
49
47
12
61
31
2
56
14
21
40
4
42
27
41
46
52
48
17
34
20
59
6
58
19
10
28
51
32
8
13
18
36
33
25
54
16
53
24
38
43
62
5
15
37
57
22
29
55
50
9
44
11
7

> <PUBCHEM_MMFF94_PARTIAL_CHARGES>
42
1 -0.36
10 0.09
11 0.44
12 0.54
14 -0.15
15 -0.15
16 0.08
17 -0.15
18 -0.15
19 0.28
2 -0.57
20 0.1
21 -0.15
22 -0.15
24 0.27
25 0.56
26 0.14
27 0.23
28 -0.15
29 -0.15
3 -0.28
30 -0.15
31 -0.15
34 0.37
35 0.15
36 0.15
37 0.15
38 0.15
4 -0.73
41 0.15
42 0.15
45 0.4
48 0.36
49 0.36
5 -0.58
50 0.15
51 0.15
52 0.15
53 0.15
6 -0.57
7 -0.99
8 -0.14

> <PUBCHEM_EFFECTIVE_ROTOR_COUNT>
7.4

> <PUBCHEM_PHARMACOPHORE_FEATURES>
12
1 1 acceptor
1 2 acceptor
1 4 donor
1 5 donor
1 7 cation
1 7 donor
3 5 6 25 cation
5 3 6 25 26 27 rings
5 4 8 10 11 12 rings
6 13 17 18 20 21 22 rings
6 26 27 28 29 30 31 rings
6 8 9 10 14 15 16 rings

> <PUBCHEM_HEAVY_ATOM_COUNT>
31

> <PUBCHEM_ATOM_DEF_STEREO_COUNT>
0

> <PUBCHEM_ATOM_UDEF_STEREO_COUNT>
0

> <PUBCHEM_BOND_DEF_STEREO_COUNT>
0

> <PUBCHEM_BOND_UDEF_STEREO_COUNT>
0

> <PUBCHEM_ISOTOPIC_ATOM_COUNT>
0

> <PUBCHEM_COMPONENT_COUNT>
1

> <PUBCHEM_CACTVS_TAUTO_COUNT>
4

> <PUBCHEM_CONFORMER_ID>
02F85A8B00000001

> <PUBCHEM_MMFF94_ENERGY>
90.7318

> <PUBCHEM_FEATURE_SELFOVERLAP>
61.104

> <PUBCHEM_SHAPE_FINGERPRINT>
10299344 5 18059855022742797415
10411042 1 17905049154451831094
10595046 47 18342742862825338673
10835480 77 18334861636291105921
11135609 187 18411136973791454234
11135609 201 18337102462912353096
11181472 205 17986403183452307977
11297750 10 17605830314846878462
11456790 92 13262396657330802581
11475781 23 17168146719754055171
11607047 191 18041837429041398288
11607047 74 17275095138590039602
11638347 137 10159692509251076957
12144603 126 17917720076488879873
12236239 1 17917150481482280579
12838862 33 18340481275161520072
13008946 282 18340193138669220720
13150687 139 17988094365616321126
13533116 47 18271525299549280379
14117953 113 18336557105556693428
14415360 78 18124869316850089892
14675020 138 16153425043508333920
15183329 4 18115590327885260011
15276724 80 18339643344016094501
1577012 14 17989211413400679657
15890870 6 18339646767500934312
18681886 176 16056880259999082232
20157964 124 18335424547442258142
20554085 129 16515404070976547456
21150785 3 17632579366001090533
21344244 78 18128806444739761578
23081809 10 18060141990713420803
23516275 100 17313105301889915845
23522609 53 17630912446539279201
23528521 120 18187354460204314629
23559900 14 18410854383003948713
24771750 20 17463433929243170485
34797466 226 18041282084989572499
3633792 109 18336266717910159867
4073 2 18334581269617060915
4098825 35 18265332795202893533
4149490 64 18333736809868430410
4403749 210 18119817056561350922
44249763 50 17240485832103781179
4516262 110 18341048601533213132
57527293 21 15937258970761427918
57634706 306 18267868470553376328
6058803 2 17556880026126784474
6327066 14 18265338486013546236
6700243 42 16414095000995816977

> <PUBCHEM_SHAPE_MULTIPOLES>
600.43
27.22
3.55
1.42
26.01
1.64
0.21
-22.93
-8.22
-14.65
-0.2
2.6
-0.22
0.31

> <PUBCHEM_SHAPE_SELFOVERLAP>
1335.332

> <PUBCHEM_SHAPE_VOLUME>
322.6

> <PUBCHEM_COORDINATE_TYPE>
2
5
10

$$$$
