44328611
  -OEChem-10062122043D

 48 50  0     0  0  0  0  0  0999 V2000
   -1.4418   -2.9122    2.0224 O   0  0  0  0  0  0  0  0  0  0  0  0
    2.4216   -3.5473   -0.3546 O   0  0  0  0  0  0  0  0  0  0  0  0
    1.2670   -1.1964   -1.5056 N   0  0  0  0  0  0  0  0  0  0  0  0
    3.3447    1.6396   -0.8240 N   0  0  0  0  0  0  0  0  0  0  0  0
   -2.7224   -0.8869    0.3467 N   0  0  0  0  0  0  0  0  0  0  0  0
    0.5625   -3.5638    1.0430 N   0  0  0  0  0  0  0  0  0  0  0  0
    4.0818    2.5278    3.3618 N   0  0  0  0  0  0  0  0  0  0  0  0
    3.0308    0.0216   -2.6733 C   0  0  0  0  0  0  0  0  0  0  0  0
    2.6907   -1.1535   -1.7546 C   0  0  0  0  0  0  0  0  0  0  0  0
   -0.4289   -1.6840    0.2182 C   0  0  0  0  0  0  0  0  0  0  0  0
    0.7032   -1.8739   -0.4786 C   0  0  0  0  0  0  0  0  0  0  0  0
    2.6460    1.3770   -2.0762 C   0  0  0  0  0  0  0  0  0  0  0  0
   -1.4157   -0.6177    0.0389 C   0  0  0  0  0  0  0  0  0  0  0  0
    2.9542    2.9293   -0.2718 C   0  0  0  0  0  0  0  0  0  0  0  0
   -3.5026    0.2242    0.1183 C   0  0  0  0  0  0  0  0  0  0  0  0
   -2.6564    1.2312   -0.3507 C   0  0  0  0  0  0  0  0  0  0  0  0
   -1.3429    0.6857   -0.3957 C   0  0  0  0  0  0  0  0  0  0  0  0
   -0.5389   -2.7779    1.2141 C   0  0  0  0  0  0  0  0  0  0  0  0
    1.3657   -3.0895    0.0485 C   0  0  0  0  0  0  0  0  0  0  0  0
    3.6673    3.2263    1.0491 C   0  0  0  0  0  0  0  0  0  0  0  0
   -4.8786    0.4128    0.2894 C   0  0  0  0  0  0  0  0  0  0  0  0
   -3.2082    2.4891   -0.6648 C   0  0  0  0  0  0  0  0  0  0  0  0
    3.3877    2.1778    2.1273 C   0  0  0  0  0  0  0  0  0  0  0  0
   -5.4036    1.6685   -0.0290 C   0  0  0  0  0  0  0  0  0  0  0  0
   -4.5831    2.6922   -0.4989 C   0  0  0  0  0  0  0  0  0  0  0  0
    4.1056    0.0049   -2.8928 H   0  0  0  0  0  0  0  0  0  0  0  0
    2.5103   -0.0993   -3.6317 H   0  0  0  0  0  0  0  0  0  0  0  0
    3.2550   -1.0693   -0.8185 H   0  0  0  0  0  0  0  0  0  0  0  0
    3.0054   -2.0739   -2.2594 H   0  0  0  0  0  0  0  0  0  0  0  0
    1.5631    1.4365   -1.9321 H   0  0  0  0  0  0  0  0  0  0  0  0
    2.9071    2.1512   -2.8090 H   0  0  0  0  0  0  0  0  0  0  0  0
    0.6814   -0.5001   -1.9543 H   0  0  0  0  0  0  0  0  0  0  0  0
    3.1895    3.7322   -0.9810 H   0  0  0  0  0  0  0  0  0  0  0  0
    1.8714    2.9502   -0.0969 H   0  0  0  0  0  0  0  0  0  0  0  0
    4.3523    1.6177   -0.9775 H   0  0  0  0  0  0  0  0  0  0  0  0
   -3.0754   -1.7703    0.6892 H   0  0  0  0  0  0  0  0  0  0  0  0
   -0.4465    1.2046   -0.7042 H   0  0  0  0  0  0  0  0  0  0  0  0
    3.3456    4.2139    1.4039 H   0  0  0  0  0  0  0  0  0  0  0  0
    4.7484    3.2937    0.8690 H   0  0  0  0  0  0  0  0  0  0  0  0
    0.7621   -4.3931    1.5908 H   0  0  0  0  0  0  0  0  0  0  0  0
   -5.5181   -0.3835    0.6554 H   0  0  0  0  0  0  0  0  0  0  0  0
   -2.5800    3.2957   -1.0319 H   0  0  0  0  0  0  0  0  0  0  0  0
    3.7217    1.1860    1.8051 H   0  0  0  0  0  0  0  0  0  0  0  0
    2.3119    2.1205    2.3248 H   0  0  0  0  0  0  0  0  0  0  0  0
   -6.4688    1.8481    0.0924 H   0  0  0  0  0  0  0  0  0  0  0  0
   -5.0143    3.6602   -0.7398 H   0  0  0  0  0  0  0  0  0  0  0  0
    5.0870    2.5531    3.1951 H   0  0  0  0  0  0  0  0  0  0  0  0
    3.9256    1.7979    4.0557 H   0  0  0  0  0  0  0  0  0  0  0  0
  1 18  2  0  0  0  0
  2 19  2  0  0  0  0
  3  9  1  0  0  0  0
  3 11  1  0  0  0  0
  3 32  1  0  0  0  0
  4 12  1  0  0  0  0
  4 14  1  0  0  0  0
  4 35  1  0  0  0  0
  5 13  1  0  0  0  0
  5 15  1  0  0  0  0
  5 36  1  0  0  0  0
  6 18  1  0  0  0  0
  6 19  1  0  0  0  0
  6 40  1  0  0  0  0
  7 23  1  0  0  0  0
  7 47  1  0  0  0  0
  7 48  1  0  0  0  0
  8  9  1  0  0  0  0
  8 12  1  0  0  0  0
  8 26  1  0  0  0  0
  8 27  1  0  0  0  0
  9 28  1  0  0  0  0
  9 29  1  0  0  0  0
 10 11  2  0  0  0  0
 10 13  1  0  0  0  0
 10 18  1  0  0  0  0
 11 19  1  0  0  0  0
 12 30  1  0  0  0  0
 12 31  1  0  0  0  0
 13 17  2  0  0  0  0
 14 20  1  0  0  0  0
 14 33  1  0  0  0  0
 14 34  1  0  0  0  0
 15 16  1  0  0  0  0
 15 21  2  0  0  0  0
 16 17  1  0  0  0  0
 16 22  2  0  0  0  0
 17 37  1  0  0  0  0
 20 23  1  0  0  0  0
 20 38  1  0  0  0  0
 20 39  1  0  0  0  0
 21 24  1  0  0  0  0
 21 41  1  0  0  0  0
 22 25  1  0  0  0  0
 22 42  1  0  0  0  0
 23 43  1  0  0  0  0
 23 44  1  0  0  0  0
 24 25  2  0  0  0  0
 24 45  1  0  0  0  0
 25 46  1  0  0  0  0
M  END
> <PUBCHEM_COMPOUND_CID>
44328611

> <PUBCHEM_CONFORMER_RMSD>
1

> <PUBCHEM_CONFORMER_DIVERSEORDER>
5
52
73
86
59
7
75
21
66
32
72
18
47
49
48
24
30
85
93
65
41
3
63
54
2
14
76
57
96
37
82
79
12
77
46
28
50
56
6
1
68
23
88
84
43
22
35
13
16
83
15
94
80
71
53
58
8
33
64
36
27
90
45
55
78
11
92
89
4
97
31
91
62
61
42
81
9
26
10
70
17
29
38
25
51
60
34
19
69
20
95
40
87
74
44
67
39

> <PUBCHEM_MMFF94_PARTIAL_CHARGES>
33
1 -0.57
10 0.06
11 0.11
12 0.27
13 -0.2
14 0.27
15 -0.15
17 -0.15
18 0.62
19 0.62
2 -0.57
21 -0.15
22 -0.15
23 0.27
24 -0.15
25 -0.15
3 -0.87
32 0.4
35 0.36
36 0.27
37 0.15
4 -0.9
40 0.37
41 0.15
42 0.15
45 0.15
46 0.15
47 0.36
48 0.36
5 0.03
6 -0.49
7 -0.99
9 0.37

> <PUBCHEM_EFFECTIVE_ROTOR_COUNT>
9.2

> <PUBCHEM_PHARMACOPHORE_FEATURES>
14
1 1 acceptor
1 2 acceptor
1 3 cation
1 3 donor
1 4 cation
1 4 donor
1 5 cation
1 5 donor
1 6 donor
1 7 cation
1 7 donor
5 5 13 15 16 17 rings
5 6 10 11 18 19 rings
6 15 16 21 22 24 25 rings

> <PUBCHEM_HEAVY_ATOM_COUNT>
25

> <PUBCHEM_ATOM_DEF_STEREO_COUNT>
0

> <PUBCHEM_ATOM_UDEF_STEREO_COUNT>
0

> <PUBCHEM_BOND_DEF_STEREO_COUNT>
0

> <PUBCHEM_BOND_UDEF_STEREO_COUNT>
0

> <PUBCHEM_ISOTOPIC_ATOM_COUNT>
0

> <PUBCHEM_COMPONENT_COUNT>
1

> <PUBCHEM_CACTVS_TAUTO_COUNT>
8

> <PUBCHEM_CONFORMER_ID>
02A466A300000005

> <PUBCHEM_MMFF94_ENERGY>
31.4261

> <PUBCHEM_FEATURE_SELFOVERLAP>
71.14

> <PUBCHEM_SHAPE_FINGERPRINT>
11582403 64 18059849619056676686
11725454 13 18059575862151878020
12156800 1 14688011438129915212
12769317 202 18116720620783692757
12788726 201 17103142733031053696
13422730 73 15122375740097382712
13773456 73 18334574676572625665
14468879 13 17986110940290745176
17974551 9 18119785132116984472
17980427 23 18195220283593522574
1813 80 10735881664379831701
18681886 176 18049440349172201275
21591340 35 18198347260187018112
23559900 14 17972034748093230293
238 59 16845022328604299324
25222932 49 15142685854424546001
3187 122 17543633487850048469
3298306 158 18271518792626562081
474 4 17605014532362540559
495365 180 18131355219423699404
508706 21 17982458401692441308
57091435 61 18412825781282904345
57124632 79 18335698304347225740
7808743 9 17898596394768117924
84936 182 18189911806988516407
90316 7 17256533444428381042
9981440 41 18266454489355675890

> <PUBCHEM_SHAPE_MULTIPOLES>
477.84
9.25
5
2.22
7.86
1.8
0.73
-10
0.49
-3.79
2.29
-4.02
-0.95
3.06

> <PUBCHEM_SHAPE_SELFOVERLAP>
1019.201

> <PUBCHEM_SHAPE_VOLUME>
267.6

> <PUBCHEM_COORDINATE_TYPE>
2
5
10

$$$$
