49830346
  -OEChem-10062121553D

 72 75  0     0  0  0  0  0  0999 V2000
    2.8062   -1.0853    0.5862 S   0  0  0  0  0  0  0  0  0  0  0  0
    5.7012    1.0184   -1.5241 O   0  0  0  0  0  0  0  0  0  0  0  0
   -5.9441   -0.6410   -0.8147 O   0  0  0  0  0  0  0  0  0  0  0  0
    9.5455   -1.1001   -0.2393 N   0  0  0  0  0  0  0  0  0  0  0  0
    5.6771    0.6080    0.7590 N   0  0  0  0  0  0  0  0  0  0  0  0
    2.0118    3.1060   -0.7792 N   0  0  0  0  0  0  0  0  0  0  0  0
   -0.2872    2.7639   -0.3490 N   0  0  0  0  0  0  0  0  0  0  0  0
   -5.1246    0.0959    1.2529 N   0  0  0  0  0  0  0  0  0  0  0  0
   -7.4048   -0.0534    0.9146 N   0  0  0  0  0  0  0  0  0  0  0  0
    8.7101   -1.7499    0.7634 C   0  0  0  0  0  0  0  0  0  0  0  0
    7.2524   -1.2880    0.6803 C   0  0  0  0  0  0  0  0  0  0  0  0
    7.0541    0.2137    0.8771 C   0  0  0  0  0  0  0  0  0  0  0  0
   10.9416   -1.5170   -0.0962 C   0  0  0  0  0  0  0  0  0  0  0  0
    9.0615   -1.4019   -1.5877 C   0  0  0  0  0  0  0  0  0  0  0  0
    1.3210    0.9658    0.0660 C   0  0  0  0  0  0  0  0  0  0  0  0
    2.6522    0.5408    0.0357 C   0  0  0  0  0  0  0  0  0  0  0  0
    3.6766    1.3893   -0.4007 C   0  0  0  0  0  0  0  0  0  0  0  0
    0.4556   -0.0727    0.5474 C   0  0  0  0  0  0  0  0  0  0  0  0
   11.4653   -1.2130    1.2972 C   0  0  0  0  0  0  0  0  0  0  0  0
    9.8829   -0.6775   -2.6407 C   0  0  0  0  0  0  0  0  0  0  0  0
    5.1048    0.9837   -0.4509 C   0  0  0  0  0  0  0  0  0  0  0  0
   -0.9747   -0.0301    0.7287 C   0  0  0  0  0  0  0  0  0  0  0  0
    1.0343    2.2742   -0.3549 C   0  0  0  0  0  0  0  0  0  0  0  0
    1.1302   -1.2283    0.8625 C   0  0  0  0  0  0  0  0  0  0  0  0
    3.2818    2.6563   -0.7927 C   0  0  0  0  0  0  0  0  0  0  0  0
   -1.5115    0.3890    1.9462 C   0  0  0  0  0  0  0  0  0  0  0  0
   -1.8213   -0.4072   -0.3138 C   0  0  0  0  0  0  0  0  0  0  0  0
   -3.7410    0.0533    1.0786 C   0  0  0  0  0  0  0  0  0  0  0  0
   -2.8945    0.4306    2.1212 C   0  0  0  0  0  0  0  0  0  0  0  0
   -3.2045   -0.3656   -0.1388 C   0  0  0  0  0  0  0  0  0  0  0  0
   -6.1430   -0.2424    0.3285 C   0  0  0  0  0  0  0  0  0  0  0  0
   -8.6763   -0.2742    0.3347 C   0  0  0  0  0  0  0  0  0  0  0  0
   -8.7744   -0.7392   -0.9767 C   0  0  0  0  0  0  0  0  0  0  0  0
  -10.0284   -0.9588   -1.5467 C   0  0  0  0  0  0  0  0  0  0  0  0
   -9.8320   -0.0288    1.0760 C   0  0  0  0  0  0  0  0  0  0  0  0
  -11.1844   -0.7133   -0.8055 C   0  0  0  0  0  0  0  0  0  0  0  0
  -11.0861   -0.2483    0.5058 C   0  0  0  0  0  0  0  0  0  0  0  0
  -10.1337   -1.4527   -2.9502 C   0  0  0  0  0  0  0  0  0  0  0  0
    8.7472   -2.8429    0.6676 H   0  0  0  0  0  0  0  0  0  0  0  0
    9.0368   -1.5027    1.7789 H   0  0  0  0  0  0  0  0  0  0  0  0
    6.6978   -1.8052    1.4763 H   0  0  0  0  0  0  0  0  0  0  0  0
    6.7675   -1.6273   -0.2418 H   0  0  0  0  0  0  0  0  0  0  0  0
    7.3894    0.5090    1.8772 H   0  0  0  0  0  0  0  0  0  0  0  0
    7.6393    0.7842    0.1483 H   0  0  0  0  0  0  0  0  0  0  0  0
   11.5834   -0.9547   -0.7822 H   0  0  0  0  0  0  0  0  0  0  0  0
   11.0756   -2.5839   -0.3149 H   0  0  0  0  0  0  0  0  0  0  0  0
    8.0388   -1.0411   -1.7292 H   0  0  0  0  0  0  0  0  0  0  0  0
    9.0621   -2.4799   -1.7923 H   0  0  0  0  0  0  0  0  0  0  0  0
    5.1077    0.6114    1.6005 H   0  0  0  0  0  0  0  0  0  0  0  0
   12.5580   -1.2990    1.3031 H   0  0  0  0  0  0  0  0  0  0  0  0
   11.2190   -0.1932    1.6126 H   0  0  0  0  0  0  0  0  0  0  0  0
   11.0969   -1.9196    2.0474 H   0  0  0  0  0  0  0  0  0  0  0  0
   10.0108    0.3829   -2.3974 H   0  0  0  0  0  0  0  0  0  0  0  0
   10.8679   -1.1307   -2.7889 H   0  0  0  0  0  0  0  0  0  0  0  0
    9.3684   -0.7299   -3.6070 H   0  0  0  0  0  0  0  0  0  0  0  0
    0.7271   -2.1573    1.2438 H   0  0  0  0  0  0  0  0  0  0  0  0
    4.0095    3.3824   -1.1445 H   0  0  0  0  0  0  0  0  0  0  0  0
   -0.8655    0.6876    2.7684 H   0  0  0  0  0  0  0  0  0  0  0  0
   -1.4178   -0.7347   -1.2693 H   0  0  0  0  0  0  0  0  0  0  0  0
   -3.2991    0.7597    3.0750 H   0  0  0  0  0  0  0  0  0  0  0  0
   -3.7909   -0.6725   -0.9930 H   0  0  0  0  0  0  0  0  0  0  0  0
   -1.0779    2.2186   -0.0516 H   0  0  0  0  0  0  0  0  0  0  0  0
   -0.4393    3.7139   -0.6624 H   0  0  0  0  0  0  0  0  0  0  0  0
   -5.4402    0.4121    2.1665 H   0  0  0  0  0  0  0  0  0  0  0  0
   -7.4165    0.2840    1.8738 H   0  0  0  0  0  0  0  0  0  0  0  0
   -7.9209   -0.9471   -1.6063 H   0  0  0  0  0  0  0  0  0  0  0  0
   -9.7697    0.3333    2.0990 H   0  0  0  0  0  0  0  0  0  0  0  0
  -12.1679   -0.8777   -1.2376 H   0  0  0  0  0  0  0  0  0  0  0  0
  -11.9860   -0.0567    1.0830 H   0  0  0  0  0  0  0  0  0  0  0  0
   -9.9376   -0.6359   -3.6520 H   0  0  0  0  0  0  0  0  0  0  0  0
   -9.4144   -2.2584   -3.1321 H   0  0  0  0  0  0  0  0  0  0  0  0
  -11.1295   -1.8562   -3.1624 H   0  0  0  0  0  0  0  0  0  0  0  0
  1 16  1  0  0  0  0
  1 24  1  0  0  0  0
  2 21  2  0  0  0  0
  3 31  2  0  0  0  0
  4 10  1  0  0  0  0
  4 13  1  0  0  0  0
  4 14  1  0  0  0  0
  5 12  1  0  0  0  0
  5 21  1  0  0  0  0
  5 49  1  0  0  0  0
  6 23  2  0  0  0  0
  6 25  1  0  0  0  0
  7 23  1  0  0  0  0
  7 62  1  0  0  0  0
  7 63  1  0  0  0  0
  8 28  1  0  0  0  0
  8 31  1  0  0  0  0
  8 64  1  0  0  0  0
  9 31  1  0  0  0  0
  9 32  1  0  0  0  0
  9 65  1  0  0  0  0
 10 11  1  0  0  0  0
 10 39  1  0  0  0  0
 10 40  1  0  0  0  0
 11 12  1  0  0  0  0
 11 41  1  0  0  0  0
 11 42  1  0  0  0  0
 12 43  1  0  0  0  0
 12 44  1  0  0  0  0
 13 19  1  0  0  0  0
 13 45  1  0  0  0  0
 13 46  1  0  0  0  0
 14 20  1  0  0  0  0
 14 47  1  0  0  0  0
 14 48  1  0  0  0  0
 15 16  2  0  0  0  0
 15 18  1  0  0  0  0
 15 23  1  0  0  0  0
 16 17  1  0  0  0  0
 17 21  1  0  0  0  0
 17 25  2  0  0  0  0
 18 22  1  0  0  0  0
 18 24  2  0  0  0  0
 19 50  1  0  0  0  0
 19 51  1  0  0  0  0
 19 52  1  0  0  0  0
 20 53  1  0  0  0  0
 20 54  1  0  0  0  0
 20 55  1  0  0  0  0
 22 26  2  0  0  0  0
 22 27  1  0  0  0  0
 24 56  1  0  0  0  0
 25 57  1  0  0  0  0
 26 29  1  0  0  0  0
 26 58  1  0  0  0  0
 27 30  2  0  0  0  0
 27 59  1  0  0  0  0
 28 29  2  0  0  0  0
 28 30  1  0  0  0  0
 29 60  1  0  0  0  0
 30 61  1  0  0  0  0
 32 33  1  0  0  0  0
 32 35  2  0  0  0  0
 33 34  2  0  0  0  0
 33 66  1  0  0  0  0
 34 36  1  0  0  0  0
 34 38  1  0  0  0  0
 35 37  1  0  0  0  0
 35 67  1  0  0  0  0
 36 37  2  0  0  0  0
 36 68  1  0  0  0  0
 37 69  1  0  0  0  0
 38 70  1  0  0  0  0
 38 71  1  0  0  0  0
 38 72  1  0  0  0  0
M  END
> <PUBCHEM_COMPOUND_CID>
49830346

> <PUBCHEM_CONFORMER_RMSD>
1.2

> <PUBCHEM_CONFORMER_DIVERSEORDER>
11
113
62
140
53
97
114
25
160
104
159
82
44
118
131
85
103
125
63
18
144
77
7
143
115
73
137
151
128
38
126
67
136
43
33
68
127
79
94
72
139
130
161
129
117
40
65
111
108
58
100
141
30
152
80
109
149
5
132
123
75
78
71
76
147
145
22
21
122
3
121
46
60
47
88
55
150
52
83
27
56
81
135
84
153
69
86
154
57
92
112
61
87
35
146
105
16
26
142
99
64
39
110
42
93
54
59
15
90
155
37
45
50
124
31
41
51
34
23
119
148
98
138
32
89
29
24
74
106
66
95
48
17
14
133
107
101
96
28
13
8
158
49
19
4
1
116
91
156
10
157
36
102
6
120
2
12
9
20
70
134

> <PUBCHEM_MMFF94_PARTIAL_CHARGES>
49
1 -0.08
10 0.27
12 0.3
13 0.27
14 0.27
16 0.04
17 0.09
18 -0.05
2 -0.57
21 0.54
22 0.05
23 0.41
24 -0.11
25 0.16
26 -0.15
27 -0.15
28 0.12
29 -0.15
3 -0.57
30 -0.15
31 0.69
32 0.12
33 -0.15
34 -0.14
35 -0.15
36 -0.15
37 -0.15
38 0.14
4 -0.81
49 0.37
5 -0.73
56 0.15
57 0.15
58 0.15
59 0.15
6 -0.62
60 0.15
61 0.15
62 0.4
63 0.4
64 0.37
65 0.37
66 0.15
67 0.15
68 0.15
69 0.15
7 -0.9
8 -0.55
9 -0.55

> <PUBCHEM_EFFECTIVE_ROTOR_COUNT>
13

> <PUBCHEM_PHARMACOPHORE_FEATURES>
12
1 2 acceptor
1 3 acceptor
1 4 cation
1 5 donor
1 7 donor
1 8 donor
1 9 donor
3 6 7 23 cation
5 1 15 16 18 24 rings
6 22 26 27 28 29 30 rings
6 32 33 34 35 36 37 rings
6 6 15 16 17 23 25 rings

> <PUBCHEM_HEAVY_ATOM_COUNT>
38

> <PUBCHEM_ATOM_DEF_STEREO_COUNT>
0

> <PUBCHEM_ATOM_UDEF_STEREO_COUNT>
0

> <PUBCHEM_BOND_DEF_STEREO_COUNT>
0

> <PUBCHEM_BOND_UDEF_STEREO_COUNT>
0

> <PUBCHEM_ISOTOPIC_ATOM_COUNT>
0

> <PUBCHEM_COMPONENT_COUNT>
1

> <PUBCHEM_CACTVS_TAUTO_COUNT>
21

> <PUBCHEM_CONFORMER_ID>
02F859CA0000000B

> <PUBCHEM_MMFF94_ENERGY>
107.0359

> <PUBCHEM_FEATURE_SELFOVERLAP>
61.011

> <PUBCHEM_SHAPE_FINGERPRINT>
10 15 13830129474112175544
10930396 42 15339116832341749393
11408170 108 18130794408680723430
11409948 35 16153694381229440714
11534866 41 16200436854067623030
12089408 11 17917995005781988921
12120059 9 16343708755005172967
13383668 1 18336262329008302694
14040221 8 16515685511429794629
14117953 113 18408045113230457074
14251764 46 18131632278999793971
15247644 1 18060701688913506023
15510794 2 15841554076585723167
15840311 113 18060133284541003064
15890870 6 17167864154019773866
16728433 110 17894351095628767332
16992610 120 13984663650861831065
21102433 48 17917707989981748230
212700 22 18202849859060738686
21792934 111 18186797020272473160
21792938 131 17240752953726934192
21792961 116 17676488323942981353
21895431 317 18131070377783933566
232437 2 17489868237120337875
249057 3 18335420218964387515
3092352 35 18412545436873992811
335352 9 18187088351802696538
3986486 107 17458337516849136557
3991529 128 11314311625034753311
4353968 344 18410290286331844829
474113 269 18412545405379380568
5381727 24 17917992780672697599
58083652 198 18115039571281097960
58902169 19 18339357591594244661
6081469 158 17458060469793758317
9663363 56 18040432197246155824

> <PUBCHEM_SHAPE_MULTIPOLES>
744.25
46.61
2
1.84
22.41
1.17
0.66
-31.38
9.73
-2.76
0.99
0.12
-0.37
-3.01

> <PUBCHEM_SHAPE_SELFOVERLAP>
1580.232

> <PUBCHEM_SHAPE_VOLUME>
418.2

> <PUBCHEM_COORDINATE_TYPE>
2
5
10

$$$$
