45375865
  -OEChem-10052115143D

 65 69  0     0  0  0  0  0  0999 V2000
    3.7940    2.4892   -0.8328 S   0  0  0  0  0  0  0  0  0  0  0  0
    3.0720    3.1025   -1.9268 O   0  0  0  0  0  0  0  0  0  0  0  0
    5.0251    3.0653   -0.3360 O   0  0  0  0  0  0  0  0  0  0  0  0
    4.0598    0.8367   -1.1952 N   0  0  0  0  0  0  0  0  0  0  0  0
    3.9481   -2.0360   -1.2562 N   0  0  0  0  0  0  0  0  0  0  0  0
   -2.9613   -0.6321   -0.8260 N   0  0  0  0  0  0  0  0  0  0  0  0
    0.2887   -3.6715    2.4487 N   0  0  0  0  0  0  0  0  0  0  0  0
   -5.1556    2.9234   -0.2948 N   0  0  0  0  0  0  0  0  0  0  0  0
   -6.3856   -1.5468   -1.5594 N   0  0  0  0  0  0  0  0  0  0  0  0
    2.9171    0.1295   -1.8402 C   0  0  0  0  0  0  0  0  0  0  0  0
    4.6495    0.0252   -0.0927 C   0  0  0  0  0  0  0  0  0  0  0  0
    3.3829   -1.2335   -2.3500 C   0  0  0  0  0  0  0  0  0  0  0  0
    5.0819   -1.3359   -0.6362 C   0  0  0  0  0  0  0  0  0  0  0  0
    4.3605   -3.3517   -1.7435 C   0  0  0  0  0  0  0  0  0  0  0  0
    2.6805    2.3314    0.5280 C   0  0  0  0  0  0  0  0  0  0  0  0
    1.3047    2.2858    0.3028 C   0  0  0  0  0  0  0  0  0  0  0  0
    3.1772    2.2521    1.8291 C   0  0  0  0  0  0  0  0  0  0  0  0
    0.4254    2.1611    1.3785 C   0  0  0  0  0  0  0  0  0  0  0  0
    2.2980    2.1271    2.9049 C   0  0  0  0  0  0  0  0  0  0  0  0
    0.9221    2.0818    2.6797 C   0  0  0  0  0  0  0  0  0  0  0  0
   -0.2959   -2.8837    0.4450 C   0  0  0  0  0  0  0  0  0  0  0  0
   -1.0093    2.1134    1.1441 C   0  0  0  0  0  0  0  0  0  0  0  0
   -1.0811   -2.1312   -0.4509 C   0  0  0  0  0  0  0  0  0  0  0  0
   -2.1614   -1.3913    0.0435 C   0  0  0  0  0  0  0  0  0  0  0  0
   -0.6222   -2.8662    1.8028 C   0  0  0  0  0  0  0  0  0  0  0  0
   -1.5976    1.7988   -0.0341 C   0  0  0  0  0  0  0  0  0  0  0  0
   -3.6994    0.5634   -0.6473 C   0  0  0  0  0  0  0  0  0  0  0  0
   -2.4639   -1.3928    1.4038 C   0  0  0  0  0  0  0  0  0  0  0  0
   -1.6990   -2.1313    2.3114 C   0  0  0  0  0  0  0  0  0  0  0  0
   -3.0513    1.7334   -0.2670 C   0  0  0  0  0  0  0  0  0  0  0  0
    0.8411   -3.7270    0.2996 C   0  0  0  0  0  0  0  0  0  0  0  0
   -0.7803   -2.1107   -1.9184 C   0  0  0  0  0  0  0  0  0  0  0  0
    1.1768   -4.1963    1.5486 C   0  0  0  0  0  0  0  0  0  0  0  0
   -5.0747    0.5721   -0.8515 C   0  0  0  0  0  0  0  0  0  0  0  0
   -3.8177    2.8763   -0.1055 C   0  0  0  0  0  0  0  0  0  0  0  0
   -5.7508    1.7669   -0.6637 C   0  0  0  0  0  0  0  0  0  0  0  0
   -5.7983   -0.5974   -1.2422 C   0  0  0  0  0  0  0  0  0  0  0  0
    2.0976   -0.0078   -1.1267 H   0  0  0  0  0  0  0  0  0  0  0  0
    2.5467    0.7092   -2.6917 H   0  0  0  0  0  0  0  0  0  0  0  0
    3.9186   -0.1323    0.7070 H   0  0  0  0  0  0  0  0  0  0  0  0
    5.5267    0.5331    0.3210 H   0  0  0  0  0  0  0  0  0  0  0  0
    4.1223   -1.0951   -3.1503 H   0  0  0  0  0  0  0  0  0  0  0  0
    2.5206   -1.7521   -2.7856 H   0  0  0  0  0  0  0  0  0  0  0  0
    5.8970   -1.2020   -1.3601 H   0  0  0  0  0  0  0  0  0  0  0  0
    5.4761   -1.9305    0.1967 H   0  0  0  0  0  0  0  0  0  0  0  0
    5.1451   -3.2846   -2.5058 H   0  0  0  0  0  0  0  0  0  0  0  0
    4.7332   -3.9673   -0.9173 H   0  0  0  0  0  0  0  0  0  0  0  0
    3.5074   -3.8877   -2.1740 H   0  0  0  0  0  0  0  0  0  0  0  0
    0.9408    2.3680   -0.7167 H   0  0  0  0  0  0  0  0  0  0  0  0
    4.2444    2.2840    2.0288 H   0  0  0  0  0  0  0  0  0  0  0  0
    2.6848    2.0641    3.9178 H   0  0  0  0  0  0  0  0  0  0  0  0
    0.2523    1.9821    3.5304 H   0  0  0  0  0  0  0  0  0  0  0  0
   -1.6404    2.3418    2.0007 H   0  0  0  0  0  0  0  0  0  0  0  0
   -3.1100   -1.0556   -1.7369 H   0  0  0  0  0  0  0  0  0  0  0  0
   -3.3069   -0.8244    1.7907 H   0  0  0  0  0  0  0  0  0  0  0  0
   -1.9356   -2.1327    3.3701 H   0  0  0  0  0  0  0  0  0  0  0  0
   -1.0108    1.5187   -0.9047 H   0  0  0  0  0  0  0  0  0  0  0  0
    1.3619   -3.9729   -0.6151 H   0  0  0  0  0  0  0  0  0  0  0  0
    0.2992   -3.8492    3.4435 H   0  0  0  0  0  0  0  0  0  0  0  0
    0.1335   -2.6611   -2.1604 H   0  0  0  0  0  0  0  0  0  0  0  0
   -0.6348   -1.0826   -2.2674 H   0  0  0  0  0  0  0  0  0  0  0  0
   -1.5971   -2.5730   -2.4824 H   0  0  0  0  0  0  0  0  0  0  0  0
    1.9675   -4.8564    1.8760 H   0  0  0  0  0  0  0  0  0  0  0  0
   -3.3759    3.8248    0.1863 H   0  0  0  0  0  0  0  0  0  0  0  0
   -6.8251    1.8415   -0.8066 H   0  0  0  0  0  0  0  0  0  0  0  0
  1  2  2  0  0  0  0
  1  3  2  0  0  0  0
  1  4  1  0  0  0  0
  1 15  1  0  0  0  0
  4 10  1  0  0  0  0
  4 11  1  0  0  0  0
  5 12  1  0  0  0  0
  5 13  1  0  0  0  0
  5 14  1  0  0  0  0
  6 24  1  0  0  0  0
  6 27  1  0  0  0  0
  6 54  1  0  0  0  0
  7 25  1  0  0  0  0
  7 33  1  0  0  0  0
  7 59  1  0  0  0  0
  8 35  1  0  0  0  0
  8 36  2  0  0  0  0
  9 37  3  0  0  0  0
 10 12  1  0  0  0  0
 10 38  1  0  0  0  0
 10 39  1  0  0  0  0
 11 13  1  0  0  0  0
 11 40  1  0  0  0  0
 11 41  1  0  0  0  0
 12 42  1  0  0  0  0
 12 43  1  0  0  0  0
 13 44  1  0  0  0  0
 13 45  1  0  0  0  0
 14 46  1  0  0  0  0
 14 47  1  0  0  0  0
 14 48  1  0  0  0  0
 15 16  1  0  0  0  0
 15 17  2  0  0  0  0
 16 18  2  0  0  0  0
 16 49  1  0  0  0  0
 17 19  1  0  0  0  0
 17 50  1  0  0  0  0
 18 20  1  0  0  0  0
 18 22  1  0  0  0  0
 19 20  2  0  0  0  0
 19 51  1  0  0  0  0
 20 52  1  0  0  0  0
 21 23  1  0  0  0  0
 21 25  2  0  0  0  0
 21 31  1  0  0  0  0
 22 26  2  0  0  0  0
 22 53  1  0  0  0  0
 23 24  2  0  0  0  0
 23 32  1  0  0  0  0
 24 28  1  0  0  0  0
 25 29  1  0  0  0  0
 26 30  1  0  0  0  0
 26 57  1  0  0  0  0
 27 30  1  0  0  0  0
 27 34  2  0  0  0  0
 28 29  2  0  0  0  0
 28 55  1  0  0  0  0
 29 56  1  0  0  0  0
 30 35  2  0  0  0  0
 31 33  2  0  0  0  0
 31 58  1  0  0  0  0
 32 60  1  0  0  0  0
 32 61  1  0  0  0  0
 32 62  1  0  0  0  0
 33 63  1  0  0  0  0
 34 36  1  0  0  0  0
 34 37  1  0  0  0  0
 35 64  1  0  0  0  0
 36 65  1  0  0  0  0
M  END
> <PUBCHEM_COMPOUND_CID>
45375865

> <PUBCHEM_CONFORMER_RMSD>
1.2

> <PUBCHEM_CONFORMER_DIVERSEORDER>
1
142
100
123
146
42
60
126
134
138
88
96
91
66
73
124
83
19
58
41
95
109
90
99
40
139
111
130
145
148
43
6
118
144
127
80
77
113
107
51
31
105
135
78
38
45
84
32
128
67
110
119
20
62
112
28
115
117
21
147
82
133
59
30
121
104
79
81
131
98
89
106
136
46
92
97
29
74
122
68
64
61
114
72
101
93
52
18
53
55
108
85
50
8
17
102
57
69
15
103
12
48
24
47
71
116
86
141
2
75
143
120
70
140
5
16
13
94
44
137
76
87
54
27
25
23
36
63
3
39
33
37
22
65
56
34
11
125
4
129
49
35
132
9
14
26
10
7

> <PUBCHEM_MMFF94_PARTIAL_CHARGES>
50
1 1.45
10 0.36
11 0.36
12 0.27
13 0.27
14 0.27
15 -0.01
16 -0.15
17 -0.15
18 0.03
19 -0.15
2 -0.65
20 -0.15
22 -0.18
23 -0.14
24 0.1
25 -0.15
26 -0.18
27 0.1
28 -0.15
29 -0.15
3 -0.65
30 0.03
31 -0.15
32 0.14
33 -0.3
34 0.07
35 0.16
36 0.16
37 0.48
4 -0.85
49 0.15
5 -0.81
50 0.15
51 0.15
52 0.15
53 0.15
54 0.4
55 0.15
56 0.15
57 0.15
58 0.15
59 0.27
6 -0.6
63 0.15
64 0.15
65 0.15
7 0.03
8 -0.62
9 -0.56

> <PUBCHEM_EFFECTIVE_ROTOR_COUNT>
7.2

> <PUBCHEM_PHARMACOPHORE_FEATURES>
14
1 2 acceptor
1 3 acceptor
1 5 cation
1 6 cation
1 6 donor
1 7 cation
1 7 donor
1 8 acceptor
1 9 acceptor
5 7 21 25 31 33 rings
6 15 16 17 18 19 20 rings
6 21 23 24 25 28 29 rings
6 4 5 10 11 12 13 rings
6 8 27 30 34 35 36 rings

> <PUBCHEM_HEAVY_ATOM_COUNT>
37

> <PUBCHEM_ATOM_DEF_STEREO_COUNT>
0

> <PUBCHEM_ATOM_UDEF_STEREO_COUNT>
0

> <PUBCHEM_BOND_DEF_STEREO_COUNT>
1

> <PUBCHEM_BOND_UDEF_STEREO_COUNT>
0

> <PUBCHEM_ISOTOPIC_ATOM_COUNT>
0

> <PUBCHEM_COMPONENT_COUNT>
1

> <PUBCHEM_CACTVS_TAUTO_COUNT>
2

> <PUBCHEM_CONFORMER_ID>
02B4617900000001

> <PUBCHEM_MMFF94_ENERGY>
100.8752

> <PUBCHEM_FEATURE_SELFOVERLAP>
71.157

> <PUBCHEM_SHAPE_FINGERPRINT>
10675989 125 18339925913829767816
107951 10 18334297612643294081
11285246 1 18126589837239194164
12156800 1 14929826695276569978
12788726 201 17537713683266224715
13383668 262 17530969090448650691
13617811 41 18262506118122170229
14068700 675 17983579607421458318
14931854 50 18268440040305116518
17909252 39 17704351056686924392
1813 80 11887951060455103455
19309040 13 15722250515209932508
20764821 26 18337104657001779682
20775438 99 17843374505589935431
21133410 230 17753084766837934763
27425 322 16806173301150023396
3298306 158 18409441458537579337
354706 35 18123464144867002398
5265222 85 18265602355276161792
57527295 17 17775292689615452049
57527585 103 17545373671202229798
6376802 137 17344630319382543578
66674814 147 18190751834436522408
6669772 16 17987499567425552746

> <PUBCHEM_SHAPE_MULTIPOLES>
723.67
11.61
5.6
2.53
8.3
2.49
1.11
-3.91
-7.79
-3.05
1.84
-1.56
0.65
1.36

> <PUBCHEM_SHAPE_SELFOVERLAP>
1566.75

> <PUBCHEM_SHAPE_VOLUME>
398

> <PUBCHEM_COORDINATE_TYPE>
2
5
10

$$$$
