49830284
  -OEChem-10062121543D

 38 40  0     0  0  0  0  0  0999 V2000
   -0.7742    1.3271    0.0006 N   0  0  0  0  0  0  0  0  0  0  0  0
   -0.3995   -3.3055    0.0009 N   0  0  0  0  0  0  0  0  0  0  0  0
   -2.7252   -0.0018   -0.0009 N   0  0  0  0  0  0  0  0  0  0  0  0
   -2.6483   -2.4352   -0.0004 N   0  0  0  0  0  0  0  0  0  0  0  0
   -1.5177    2.5745    0.0000 C   0  0  0  0  0  0  0  0  0  0  0  0
   -0.6127   -1.0839    0.0005 C   0  0  0  0  0  0  0  0  0  0  0  0
   -1.3749    0.0834   -0.0001 C   0  0  0  0  0  0  0  0  0  0  0  0
   -2.3931    2.6279    1.2553 C   0  0  0  0  0  0  0  0  0  0  0  0
   -2.3888    2.6199   -1.2575 C   0  0  0  0  0  0  0  0  0  0  0  0
   -0.5253    3.7406    0.0013 C   0  0  0  0  0  0  0  0  0  0  0  0
    0.7677   -1.4098    0.0014 C   0  0  0  0  0  0  0  0  0  0  0  0
   -1.3124   -2.2845    0.0003 C   0  0  0  0  0  0  0  0  0  0  0  0
    0.8691   -2.7849    0.0015 C   0  0  0  0  0  0  0  0  0  0  0  0
    1.9254   -0.5620    0.0009 C   0  0  0  0  0  0  0  0  0  0  0  0
   -3.2708   -1.2389   -0.0009 C   0  0  0  0  0  0  0  0  0  0  0  0
    2.4872   -0.1505   -1.2077 C   0  0  0  0  0  0  0  0  0  0  0  0
    2.4892   -0.1496    1.2083 C   0  0  0  0  0  0  0  0  0  0  0  0
    3.6128    0.6733   -1.2091 C   0  0  0  0  0  0  0  0  0  0  0  0
    3.6148    0.6743    1.2070 C   0  0  0  0  0  0  0  0  0  0  0  0
    4.1767    1.0856   -0.0017 C   0  0  0  0  0  0  0  0  0  0  0  0
    0.2367    1.3757    0.0017 H   0  0  0  0  0  0  0  0  0  0  0  0
   -2.8139    3.6330    1.3817 H   0  0  0  0  0  0  0  0  0  0  0  0
   -1.8094    2.4047    2.1564 H   0  0  0  0  0  0  0  0  0  0  0  0
   -3.2483    1.9478    1.2380 H   0  0  0  0  0  0  0  0  0  0  0  0
   -2.8050    3.6258   -1.3934 H   0  0  0  0  0  0  0  0  0  0  0  0
   -1.8040    2.3878   -2.1557 H   0  0  0  0  0  0  0  0  0  0  0  0
   -3.2477    1.9446   -1.2370 H   0  0  0  0  0  0  0  0  0  0  0  0
   -1.0426    4.7064   -0.0004 H   0  0  0  0  0  0  0  0  0  0  0  0
    0.1257    3.7067   -0.8802 H   0  0  0  0  0  0  0  0  0  0  0  0
    0.1226    3.7079    0.8851 H   0  0  0  0  0  0  0  0  0  0  0  0
    1.7265   -3.4447    0.0018 H   0  0  0  0  0  0  0  0  0  0  0  0
   -0.6264   -4.2902    0.0009 H   0  0  0  0  0  0  0  0  0  0  0  0
   -4.3549   -1.2723   -0.0014 H   0  0  0  0  0  0  0  0  0  0  0  0
    2.0594   -0.4618   -2.1579 H   0  0  0  0  0  0  0  0  0  0  0  0
    2.0630   -0.4601    2.1594 H   0  0  0  0  0  0  0  0  0  0  0  0
    4.0500    0.9942   -2.1500 H   0  0  0  0  0  0  0  0  0  0  0  0
    4.0535    0.9959    2.1470 H   0  0  0  0  0  0  0  0  0  0  0  0
    5.0529    1.7274   -0.0026 H   0  0  0  0  0  0  0  0  0  0  0  0
  1  5  1  0  0  0  0
  1  7  1  0  0  0  0
  1 21  1  0  0  0  0
  2 12  1  0  0  0  0
  2 13  1  0  0  0  0
  2 32  1  0  0  0  0
  3  7  2  0  0  0  0
  3 15  1  0  0  0  0
  4 12  1  0  0  0  0
  4 15  2  0  0  0  0
  5  8  1  0  0  0  0
  5  9  1  0  0  0  0
  5 10  1  0  0  0  0
  6  7  1  0  0  0  0
  6 11  1  0  0  0  0
  6 12  2  0  0  0  0
  8 22  1  0  0  0  0
  8 23  1  0  0  0  0
  8 24  1  0  0  0  0
  9 25  1  0  0  0  0
  9 26  1  0  0  0  0
  9 27  1  0  0  0  0
 10 28  1  0  0  0  0
 10 29  1  0  0  0  0
 10 30  1  0  0  0  0
 11 13  2  0  0  0  0
 11 14  1  0  0  0  0
 13 31  1  0  0  0  0
 14 16  2  0  0  0  0
 14 17  1  0  0  0  0
 15 33  1  0  0  0  0
 16 18  1  0  0  0  0
 16 34  1  0  0  0  0
 17 19  2  0  0  0  0
 17 35  1  0  0  0  0
 18 20  2  0  0  0  0
 18 36  1  0  0  0  0
 19 20  1  0  0  0  0
 19 37  1  0  0  0  0
 20 38  1  0  0  0  0
M  END
> <PUBCHEM_COMPOUND_CID>
49830284

> <PUBCHEM_CONFORMER_RMSD>
0.6

> <PUBCHEM_CONFORMER_DIVERSEORDER>
1
5
2
3
4

> <PUBCHEM_MMFF94_PARTIAL_CHARGES>
25
1 -0.87
11 -0.05
12 0.11
13 -0.3
14 0.05
15 0.47
16 -0.15
17 -0.15
18 -0.15
19 -0.15
2 0.03
20 -0.15
21 0.4
3 -0.62
31 0.15
32 0.27
33 0.15
34 0.15
35 0.15
36 0.15
37 0.15
38 0.15
4 -0.57
5 0.37
7 0.41

> <PUBCHEM_EFFECTIVE_ROTOR_COUNT>
3

> <PUBCHEM_PHARMACOPHORE_FEATURES>
9
1 1 donor
1 2 cation
1 2 donor
3 1 3 7 cation
3 3 4 15 cation
4 5 8 9 10 hydrophobe
5 2 6 11 12 13 rings
6 14 16 17 18 19 20 rings
6 3 4 6 7 12 15 rings

> <PUBCHEM_HEAVY_ATOM_COUNT>
20

> <PUBCHEM_ATOM_DEF_STEREO_COUNT>
0

> <PUBCHEM_ATOM_UDEF_STEREO_COUNT>
0

> <PUBCHEM_BOND_DEF_STEREO_COUNT>
0

> <PUBCHEM_BOND_UDEF_STEREO_COUNT>
0

> <PUBCHEM_ISOTOPIC_ATOM_COUNT>
0

> <PUBCHEM_COMPONENT_COUNT>
1

> <PUBCHEM_CACTVS_TAUTO_COUNT>
9

> <PUBCHEM_CONFORMER_ID>
02F8598C00000001

> <PUBCHEM_MMFF94_ENERGY>
58.7077

> <PUBCHEM_FEATURE_SELFOVERLAP>
45.906

> <PUBCHEM_SHAPE_FINGERPRINT>
10165383 225 17908171813790459588
10498660 4 18410292527365321764
10967382 1 17474106987012233637
1100329 8 18050573138390683515
11578080 2 13608121651638908473
11640471 11 17676211290495113988
11725454 13 16913644975439417458
12403259 226 18272368707004666754
12553582 1 18265899240283708719
13140716 1 18050007984707310043
13965767 371 17825943724521802372
14386348 128 18197791998214051984
14614273 12 18262230028390201125
14787075 74 17460886347462705891
14790565 3 18338815488980164945
14955137 171 17977695274208095611
16945 1 18410574019611793063
18981168 100 18192431861779930300
19868273 325 18193840576825414846
20510252 161 18412545439723119272
20600515 1 17983872343016337960
20671657 1 17834682595330040286
20715895 44 17752180826751340045
21029758 27 18046069521435646723
21524375 3 18126281948028925126
2334 1 17762337320071951587
23402539 116 18199178671650735230
23419403 2 16189678342573292463
23557571 272 18198348549188181692
23558518 356 18190458255804732635
238 59 17543901313800903629
2748010 2 18121226380938004559
350125 39 18194410991315991019
3524813 1 17917142931087718360
352729 6 18194391200148596819
3797600 57 16810721959226204032
469060 322 18336562598027853305
6442390 28 18198363791731645035
7097593 13 17826210923011241762
7364860 26 17692246335740130934
77492 1 17532362261590362406
7832392 63 16107253998889722021
81228 2 18339935916512408610
90316 7 18193538181168266970
9925002 15 16479080862549900862

> <PUBCHEM_SHAPE_MULTIPOLES>
391.67
5.92
4.2
1.07
3.99
0.54
0
2.23
0
-3.36
0
0.5
0.54
0

> <PUBCHEM_SHAPE_SELFOVERLAP>
858.907

> <PUBCHEM_SHAPE_VOLUME>
210

> <PUBCHEM_COORDINATE_TYPE>
2
5
10

$$$$
