49830551
  -OEChem-10052115183D

 52 55  0     0  0  0  0  0  0999 V2000
    2.7388   -1.3204   -2.0456 O   0  0  0  0  0  0  0  0  0  0  0  0
   -5.8069    3.3572   -1.2479 O   0  0  0  0  0  0  0  0  0  0  0  0
    7.1895    2.0388    1.5191 O   0  0  0  0  0  0  0  0  0  0  0  0
    1.3398   -1.6072   -0.2287 N   0  0  0  0  0  0  0  0  0  0  0  0
   -3.9270   -1.6520    0.9995 N   0  0  0  0  0  0  0  0  0  0  0  0
   -3.2191    0.1332   -0.1192 N   0  0  0  0  0  0  0  0  0  0  0  0
    3.2286   -0.2037   -0.0722 N   0  0  0  0  0  0  0  0  0  0  0  0
   -3.6750    2.5139   -1.2961 N   0  0  0  0  0  0  0  0  0  0  0  0
   -1.4782   -1.6230    0.4263 C   0  0  0  0  0  0  0  0  0  0  0  0
   -0.9697   -1.9249   -0.9985 C   0  0  0  0  0  0  0  0  0  0  0  0
   -0.4672   -0.7458    1.1939 C   0  0  0  0  0  0  0  0  0  0  0  0
    0.4472   -2.5003   -0.9710 C   0  0  0  0  0  0  0  0  0  0  0  0
    0.9245   -1.3739    1.1619 C   0  0  0  0  0  0  0  0  0  0  0  0
   -2.8676   -1.0142    0.4165 C   0  0  0  0  0  0  0  0  0  0  0  0
    2.4732   -1.0635   -0.8685 C   0  0  0  0  0  0  0  0  0  0  0  0
   -5.0359   -0.8636    0.8288 C   0  0  0  0  0  0  0  0  0  0  0  0
   -4.5682    0.2444    0.1279 C   0  0  0  0  0  0  0  0  0  0  0  0
   -5.4681    1.2671   -0.2163 C   0  0  0  0  0  0  0  0  0  0  0  0
   -6.3674   -1.0198    1.2156 C   0  0  0  0  0  0  0  0  0  0  0  0
   -6.8098    1.1317    0.1617 C   0  0  0  0  0  0  0  0  0  0  0  0
   -7.2494    0.0077    0.8650 C   0  0  0  0  0  0  0  0  0  0  0  0
    4.6247    0.0291   -0.1442 C   0  0  0  0  0  0  0  0  0  0  0  0
   -5.0222    2.4379   -0.9491 C   0  0  0  0  0  0  0  0  0  0  0  0
    5.2278    0.9295    0.7340 C   0  0  0  0  0  0  0  0  0  0  0  0
    5.3956   -0.6416   -1.0938 C   0  0  0  0  0  0  0  0  0  0  0  0
    6.6018    1.1593    0.6627 C   0  0  0  0  0  0  0  0  0  0  0  0
    6.7694   -0.4117   -1.1653 C   0  0  0  0  0  0  0  0  0  0  0  0
    7.3727    0.4885   -0.2869 C   0  0  0  0  0  0  0  0  0  0  0  0
    8.5981    2.2273    1.3905 C   0  0  0  0  0  0  0  0  0  0  0  0
   -1.5411   -2.5845    0.9572 H   0  0  0  0  0  0  0  0  0  0  0  0
   -1.6444   -2.6292   -1.4998 H   0  0  0  0  0  0  0  0  0  0  0  0
   -0.9738   -1.0023   -1.5941 H   0  0  0  0  0  0  0  0  0  0  0  0
   -0.4273    0.2558    0.7460 H   0  0  0  0  0  0  0  0  0  0  0  0
   -0.7921   -0.6186    2.2335 H   0  0  0  0  0  0  0  0  0  0  0  0
    0.4591   -3.4754   -0.4702 H   0  0  0  0  0  0  0  0  0  0  0  0
    0.8014   -2.6536   -1.9949 H   0  0  0  0  0  0  0  0  0  0  0  0
    1.6271   -0.7536    1.7186 H   0  0  0  0  0  0  0  0  0  0  0  0
    0.9110   -2.3499    1.6627 H   0  0  0  0  0  0  0  0  0  0  0  0
   -3.9017   -2.5454    1.4729 H   0  0  0  0  0  0  0  0  0  0  0  0
    2.7530    0.3110    0.6610 H   0  0  0  0  0  0  0  0  0  0  0  0
   -6.7061   -1.8932    1.7612 H   0  0  0  0  0  0  0  0  0  0  0  0
   -7.5378    1.9010   -0.0863 H   0  0  0  0  0  0  0  0  0  0  0  0
   -8.2969   -0.0713    1.1455 H   0  0  0  0  0  0  0  0  0  0  0  0
    4.6330    1.4562    1.4767 H   0  0  0  0  0  0  0  0  0  0  0  0
    4.9903   -1.3711   -1.7841 H   0  0  0  0  0  0  0  0  0  0  0  0
   -3.3242    3.3200   -1.8032 H   0  0  0  0  0  0  0  0  0  0  0  0
   -2.9916    1.7991   -1.0734 H   0  0  0  0  0  0  0  0  0  0  0  0
    7.3706   -0.9386   -1.9009 H   0  0  0  0  0  0  0  0  0  0  0  0
    8.4440    0.6184   -0.3963 H   0  0  0  0  0  0  0  0  0  0  0  0
    9.1485    1.3044    1.6027 H   0  0  0  0  0  0  0  0  0  0  0  0
    8.8599    2.6519    0.4153 H   0  0  0  0  0  0  0  0  0  0  0  0
    8.8968    2.9590    2.1483 H   0  0  0  0  0  0  0  0  0  0  0  0
  1 15  2  0  0  0  0
  2 23  2  0  0  0  0
  3 26  1  0  0  0  0
  3 29  1  0  0  0  0
  4 12  1  0  0  0  0
  4 13  1  0  0  0  0
  4 15  1  0  0  0  0
  5 14  1  0  0  0  0
  5 16  1  0  0  0  0
  5 39  1  0  0  0  0
  6 14  2  0  0  0  0
  6 17  1  0  0  0  0
  7 15  1  0  0  0  0
  7 22  1  0  0  0  0
  7 40  1  0  0  0  0
  8 23  1  0  0  0  0
  8 46  1  0  0  0  0
  8 47  1  0  0  0  0
  9 10  1  0  0  0  0
  9 11  1  0  0  0  0
  9 14  1  0  0  0  0
  9 30  1  0  0  0  0
 10 12  1  0  0  0  0
 10 31  1  0  0  0  0
 10 32  1  0  0  0  0
 11 13  1  0  0  0  0
 11 33  1  0  0  0  0
 11 34  1  0  0  0  0
 12 35  1  0  0  0  0
 12 36  1  0  0  0  0
 13 37  1  0  0  0  0
 13 38  1  0  0  0  0
 16 17  1  0  0  0  0
 16 19  2  0  0  0  0
 17 18  2  0  0  0  0
 18 20  1  0  0  0  0
 18 23  1  0  0  0  0
 19 21  1  0  0  0  0
 19 41  1  0  0  0  0
 20 21  2  0  0  0  0
 20 42  1  0  0  0  0
 21 43  1  0  0  0  0
 22 24  2  0  0  0  0
 22 25  1  0  0  0  0
 24 26  1  0  0  0  0
 24 44  1  0  0  0  0
 25 27  2  0  0  0  0
 25 45  1  0  0  0  0
 26 28  2  0  0  0  0
 27 28  1  0  0  0  0
 27 48  1  0  0  0  0
 28 49  1  0  0  0  0
 29 50  1  0  0  0  0
 29 51  1  0  0  0  0
 29 52  1  0  0  0  0
M  END
> <PUBCHEM_COMPOUND_CID>
49830551

> <PUBCHEM_CONFORMER_RMSD>
1.2

> <PUBCHEM_CONFORMER_DIVERSEORDER>
1
51
69
44
31
58
52
30
23
43
37
75
48
28
80
15
71
83
66
65
39
67
32
45
9
25
36
68
59
63
77
7
49
79
60
35
73
2
82
54
33
74
50
4
47
24
76
56
19
62
12
21
29
14
57
13
55
41
64
27
6
22
81
38
20
18
46
16
78
61
42
10
40
70
34
5
26
72
3
17
11
53
8

> <PUBCHEM_MMFF94_PARTIAL_CHARGES>
38
1 -0.57
12 0.3
13 0.3
14 0.01
15 0.69
16 -0.15
17 0.23
18 0.09
19 -0.15
2 -0.57
20 -0.15
21 -0.15
22 0.12
23 0.54
24 -0.15
25 -0.15
26 0.08
27 -0.15
28 -0.15
29 0.28
3 -0.36
39 0.27
4 -0.66
40 0.37
41 0.15
42 0.15
43 0.15
44 0.15
45 0.15
46 0.37
47 0.37
48 0.15
49 0.15
5 0.03
6 -0.57
7 -0.55
8 -0.8
9 0.18

> <PUBCHEM_EFFECTIVE_ROTOR_COUNT>
7.2

> <PUBCHEM_PHARMACOPHORE_FEATURES>
11
1 1 acceptor
1 2 acceptor
1 3 acceptor
1 5 donor
1 7 donor
1 8 donor
3 5 6 14 cation
5 5 6 14 16 17 rings
6 16 17 18 19 20 21 rings
6 22 24 25 26 27 28 rings
6 4 9 10 11 12 13 rings

> <PUBCHEM_HEAVY_ATOM_COUNT>
29

> <PUBCHEM_ATOM_DEF_STEREO_COUNT>
0

> <PUBCHEM_ATOM_UDEF_STEREO_COUNT>
0

> <PUBCHEM_BOND_DEF_STEREO_COUNT>
0

> <PUBCHEM_BOND_UDEF_STEREO_COUNT>
0

> <PUBCHEM_ISOTOPIC_ATOM_COUNT>
0

> <PUBCHEM_COMPONENT_COUNT>
1

> <PUBCHEM_CACTVS_TAUTO_COUNT>
14

> <PUBCHEM_CONFORMER_ID>
02F85A9700000001

> <PUBCHEM_MMFF94_ENERGY>
81.4801

> <PUBCHEM_FEATURE_SELFOVERLAP>
55.929

> <PUBCHEM_SHAPE_FINGERPRINT>
10 15 18407760352171001706
10087517 78 17967817133179434621
10280341 67 18189606164674969197
10369192 42 18202004318129322735
10554248 39 16916796158727263526
10625338 86 18333452071328205132
10835480 77 17632017550541183706
11409948 8 18187657861206037641
11761917 142 18116148878911975476
12082328 90 16702307845396078383
13257819 101 18343018865760519951
13402501 40 18411982455273270601
13668630 136 9583523109594627954
13726171 33 18264773147810876441
13878862 14 17203320127535393736
13911987 19 17632574921210969271
14028597 1 16515394154240192432
14251764 18 16008754636235877634
14556957 393 16271941410213865136
14598715 104 18411972568395692712
14739800 52 18115016412146719475
14767858 380 15913332385932639706
14849402 71 16443924889101088212
15183329 4 16415481545223894930
15289351 153 18263354816322546282
15419008 145 17604137165323820540
1768 4 17988370359539769163
17686467 74 18337392742919940275
20157964 124 17703798016220295006
20281389 69 18409168805397275298
21033648 29 18408602587432729686
21307412 95 10159690271546677281
21315759 40 15647338575589919771
21424621 283 18260266352447690802
21756936 100 18334288803613259331
21859007 373 18337110073493512894
23522609 53 16009335165939010782
23559900 14 16773791554351795698
249057 3 12535347883820334283
2838139 119 18410288133698044332
44249763 50 18343017834773280726
44280117 145 18058448880399255447
504843 32 17346032389486180030
5385378 56 17530960259922101842
58902169 19 14908181962902141864
6201320 215 18263073345314378760
636775 72 18408602586573464817
6697151 62 17690549793494376775

> <PUBCHEM_SHAPE_MULTIPOLES>
554.29
25.12
2.71
1.45
22.07
1.45
-0.12
17.65
4.94
-1.72
-0.7
0.71
0.12
4.57

> <PUBCHEM_SHAPE_SELFOVERLAP>
1205.283

> <PUBCHEM_SHAPE_VOLUME>
298.4

> <PUBCHEM_COORDINATE_TYPE>
2
5
10

$$$$
