21362727
  -OEChem-10062122043D

 28 30  0     0  0  0  0  0  0999 V2000
    1.7376   -2.6186   -0.3442 Cl  0  0  0  0  0  0  0  0  0  0  0  0
    2.7109    2.7321   -0.2323 Cl  0  0  0  0  0  0  0  0  0  0  0  0
    3.4155   -0.1516   -0.3793 O   0  0  0  0  0  0  0  0  0  0  0  0
   -1.2620   -1.5524   -0.0937 N   0  0  0  0  0  0  0  0  0  0  0  0
   -4.7438   -0.3705    0.1967 N   0  0  0  0  0  0  0  0  0  0  0  0
   -0.6747    0.5992   -0.0615 C   0  0  0  0  0  0  0  0  0  0  0  0
   -0.1810   -0.7035   -0.1414 C   0  0  0  0  0  0  0  0  0  0  0  0
   -2.0994    0.5108    0.0380 C   0  0  0  0  0  0  0  0  0  0  0  0
   -2.4331   -0.8430    0.0147 C   0  0  0  0  0  0  0  0  0  0  0  0
    1.1846   -0.9902   -0.2490 C   0  0  0  0  0  0  0  0  0  0  0  0
    0.2423    1.6709   -0.0908 C   0  0  0  0  0  0  0  0  0  0  0  0
    2.0730    0.0882   -0.2759 C   0  0  0  0  0  0  0  0  0  0  0  0
    1.6110    1.4000   -0.1985 C   0  0  0  0  0  0  0  0  0  0  0  0
   -3.1350    1.4524    0.1453 C   0  0  0  0  0  0  0  0  0  0  0  0
   -3.7486   -1.2812    0.0933 C   0  0  0  0  0  0  0  0  0  0  0  0
   -4.4245    0.9431    0.2201 C   0  0  0  0  0  0  0  0  0  0  0  0
    4.1362   -0.3074    0.8388 C   0  0  0  0  0  0  0  0  0  0  0  0
    5.5910   -0.5782    0.5196 C   0  0  0  0  0  0  0  0  0  0  0  0
   -1.2019   -2.5605   -0.1330 H   0  0  0  0  0  0  0  0  0  0  0  0
   -0.1194    2.6941   -0.0299 H   0  0  0  0  0  0  0  0  0  0  0  0
   -2.9476    2.5197    0.1692 H   0  0  0  0  0  0  0  0  0  0  0  0
   -4.0319   -2.3255    0.0770 H   0  0  0  0  0  0  0  0  0  0  0  0
   -5.2729    1.6157    0.3046 H   0  0  0  0  0  0  0  0  0  0  0  0
    4.0575    0.6022    1.4444 H   0  0  0  0  0  0  0  0  0  0  0  0
    3.7271   -1.1433    1.4172 H   0  0  0  0  0  0  0  0  0  0  0  0
    5.6899   -1.4829   -0.0893 H   0  0  0  0  0  0  0  0  0  0  0  0
    6.0175    0.2457   -0.0623 H   0  0  0  0  0  0  0  0  0  0  0  0
    6.1757   -0.7033    1.4352 H   0  0  0  0  0  0  0  0  0  0  0  0
  1 10  1  0  0  0  0
  2 13  1  0  0  0  0
  3 12  1  0  0  0  0
  3 17  1  0  0  0  0
  4  7  1  0  0  0  0
  4  9  1  0  0  0  0
  4 19  1  0  0  0  0
  5 15  2  0  0  0  0
  5 16  1  0  0  0  0
  6  7  1  0  0  0  0
  6  8  1  0  0  0  0
  6 11  2  0  0  0  0
  7 10  2  0  0  0  0
  8  9  2  0  0  0  0
  8 14  1  0  0  0  0
  9 15  1  0  0  0  0
 10 12  1  0  0  0  0
 11 13  1  0  0  0  0
 11 20  1  0  0  0  0
 12 13  2  0  0  0  0
 14 16  2  0  0  0  0
 14 21  1  0  0  0  0
 15 22  1  0  0  0  0
 16 23  1  0  0  0  0
 17 18  1  0  0  0  0
 17 24  1  0  0  0  0
 17 25  1  0  0  0  0
 18 26  1  0  0  0  0
 18 27  1  0  0  0  0
 18 28  1  0  0  0  0
M  END
> <PUBCHEM_COMPOUND_CID>
21362727

> <PUBCHEM_CONFORMER_RMSD>
0.6

> <PUBCHEM_CONFORMER_DIVERSEORDER>
1
2
4
3

> <PUBCHEM_MMFF94_PARTIAL_CHARGES>
20
1 -0.18
10 0.18
11 -0.15
12 0.08
13 0.18
14 -0.15
15 0.16
16 0.16
17 0.28
19 0.27
2 -0.18
20 0.15
21 0.15
22 0.15
23 0.15
3 -0.36
4 0.03
5 -0.62
7 -0.15
9 -0.15

> <PUBCHEM_EFFECTIVE_ROTOR_COUNT>
2

> <PUBCHEM_PHARMACOPHORE_FEATURES>
7
1 3 acceptor
1 4 cation
1 4 donor
1 5 acceptor
5 4 6 7 8 9 rings
6 5 8 9 14 15 16 rings
6 6 7 10 11 12 13 rings

> <PUBCHEM_HEAVY_ATOM_COUNT>
18

> <PUBCHEM_ATOM_DEF_STEREO_COUNT>
0

> <PUBCHEM_ATOM_UDEF_STEREO_COUNT>
0

> <PUBCHEM_BOND_DEF_STEREO_COUNT>
0

> <PUBCHEM_BOND_UDEF_STEREO_COUNT>
0

> <PUBCHEM_ISOTOPIC_ATOM_COUNT>
0

> <PUBCHEM_COMPONENT_COUNT>
1

> <PUBCHEM_CACTVS_TAUTO_COUNT>
2

> <PUBCHEM_CONFORMER_ID>
0145F82700000001

> <PUBCHEM_MMFF94_ENERGY>
45.5083

> <PUBCHEM_FEATURE_SELFOVERLAP>
35.706

> <PUBCHEM_SHAPE_FINGERPRINT>
10062212 137 18411693313843012775
10608611 8 18409731772678492669
10906281 52 18263101975729228432
10967382 1 18411422799796648567
11132069 177 18412827953955308423
11401426 45 18342735208750206431
11471102 20 18410855477424251157
11578080 2 16663162894526452886
12236239 1 17894914014842125862
12251169 10 18410291406373426658
12403260 363 18411978091934332733
12507557 5 18410009927328946465
13140716 1 18338797930783944264
13214271 11 18342452625703705559
13380535 76 18410577288182223063
13675066 3 18131630097330207768
13862211 1 18410006624667952750
14178342 30 18197498424694289792
14790565 3 18337961181451422372
15196674 1 18338236067283253269
15375462 189 17895185572275094424
15442244 35 18409730685577045492
15536298 74 18341897440988040060
1601671 61 18411139095990465020
16945 1 18411428279937658404
17802600 8 18409727370141699013
17804303 29 18410294722367994412
17862501 102 18410569600026869266
1813 80 17313391063549103638
18186145 218 17603860147915884349
18522853 276 18342458131878139689
19050596 39 18411423929599894169
200 152 18131344224723724095
20645477 70 18408603694843169551
21033648 29 17417512636771004112
21267235 1 18410302418822872723
21421861 104 17679298559936804794
21501502 16 18266741457584787477
21709351 56 18410566297270852653
22182313 1 18196649588827216990
2255824 54 18260554475917691948
2334 1 18194967576317686356
23402539 116 18342729719855920375
23463225 33 18408040736305140260
23558518 356 17901385911602502434
23559900 14 18270400486469539150
2748010 2 18194128631712920740
3286 77 18261672670320753356
335352 9 18410012108987541437
34934 24 18339636729180402239
350125 39 18409450297279938245
3545911 37 18341333306008383619
4072396 5 18338223878514239978
465052 167 18113622291780460130
474 4 17460601569651006092
5104073 3 18338804528080525953
57005193 9 18341044142702784983
7364860 26 18341618104851964118
9709674 26 18411145735889150551
9981440 41 17326331529102549080

> <PUBCHEM_SHAPE_MULTIPOLES>
358.34
9.16
2.34
0.7
1.07
0.3
0.03
-0.51
1.87
1.09
-0.28
0.29
-0.02
-0.22

> <PUBCHEM_SHAPE_SELFOVERLAP>
775.875

> <PUBCHEM_SHAPE_VOLUME>
200.4

> <PUBCHEM_COORDINATE_TYPE>
2
5
10

$$$$
