49830758
  -OEChem-10062121553D

 45 48  0     0  0  0  0  0  0999 V2000
   -0.3684    3.1714    0.4283 S   0  0  0  0  0  0  0  0  0  0  0  0
    2.3885    2.6543   -0.3995 O   0  0  0  0  0  0  0  0  0  0  0  0
    2.2250    0.4468   -1.0958 N   0  0  0  0  0  0  0  0  0  0  0  0
   -3.8203    1.6953    0.8044 N   0  0  0  0  0  0  0  0  0  0  0  0
   -2.9798    2.7728    0.9452 N   0  0  0  0  0  0  0  0  0  0  0  0
    4.4235   -0.2265   -0.2821 C   0  0  0  0  0  0  0  0  0  0  0  0
    3.8905   -1.5772    0.2145 C   0  0  0  0  0  0  0  0  0  0  0  0
    5.9066   -0.3309   -0.6624 C   0  0  0  0  0  0  0  0  0  0  0  0
    4.7330   -2.1280    1.3627 C   0  0  0  0  0  0  0  0  0  0  0  0
    6.7458   -0.8839    0.4872 C   0  0  0  0  0  0  0  0  0  0  0  0
    6.2078   -2.2221    0.9839 C   0  0  0  0  0  0  0  0  0  0  0  0
    3.5978    0.2777   -1.4641 C   0  0  0  0  0  0  0  0  0  0  0  0
    1.7202    1.6406   -0.5844 C   0  0  0  0  0  0  0  0  0  0  0  0
    0.2785    1.6462   -0.2258 C   0  0  0  0  0  0  0  0  0  0  0  0
   -1.9208    0.9576    0.0954 C   0  0  0  0  0  0  0  0  0  0  0  0
   -0.6335    0.5800   -0.3453 C   0  0  0  0  0  0  0  0  0  0  0  0
   -1.8600    2.2754    0.5072 C   0  0  0  0  0  0  0  0  0  0  0  0
   -3.2004    0.5597    0.2834 C   0  0  0  0  0  0  0  0  0  0  0  0
   -3.8884   -0.6810    0.0505 C   0  0  0  0  0  0  0  0  0  0  0  0
   -3.1966   -1.8891    0.1387 C   0  0  0  0  0  0  0  0  0  0  0  0
   -5.2473   -0.6767   -0.2636 C   0  0  0  0  0  0  0  0  0  0  0  0
   -3.8640   -3.0931   -0.0873 C   0  0  0  0  0  0  0  0  0  0  0  0
   -5.9146   -1.8805   -0.4895 C   0  0  0  0  0  0  0  0  0  0  0  0
   -5.2230   -3.0887   -0.4015 C   0  0  0  0  0  0  0  0  0  0  0  0
    4.3336    0.4957    0.5417 H   0  0  0  0  0  0  0  0  0  0  0  0
    3.8854   -2.3031   -0.6087 H   0  0  0  0  0  0  0  0  0  0  0  0
    2.8552   -1.4830    0.5622 H   0  0  0  0  0  0  0  0  0  0  0  0
    6.2902    0.6562   -0.9468 H   0  0  0  0  0  0  0  0  0  0  0  0
    6.0223   -0.9815   -1.5388 H   0  0  0  0  0  0  0  0  0  0  0  0
    4.3626   -3.1187    1.6492 H   0  0  0  0  0  0  0  0  0  0  0  0
    4.6220   -1.4793    2.2404 H   0  0  0  0  0  0  0  0  0  0  0  0
    6.7516   -0.1630    1.3140 H   0  0  0  0  0  0  0  0  0  0  0  0
    7.7850   -1.0030    0.1604 H   0  0  0  0  0  0  0  0  0  0  0  0
    6.3356   -2.9799    0.2011 H   0  0  0  0  0  0  0  0  0  0  0  0
    6.7906   -2.5557    1.8498 H   0  0  0  0  0  0  0  0  0  0  0  0
    3.6290   -0.4330   -2.2975 H   0  0  0  0  0  0  0  0  0  0  0  0
    3.9932    1.2340   -1.8249 H   0  0  0  0  0  0  0  0  0  0  0  0
    1.6154   -0.3535   -1.2212 H   0  0  0  0  0  0  0  0  0  0  0  0
   -0.3820   -0.4003   -0.7268 H   0  0  0  0  0  0  0  0  0  0  0  0
   -4.7864    1.8052    1.0874 H   0  0  0  0  0  0  0  0  0  0  0  0
   -2.1406   -1.9244    0.3930 H   0  0  0  0  0  0  0  0  0  0  0  0
   -5.8115    0.2485   -0.3500 H   0  0  0  0  0  0  0  0  0  0  0  0
   -3.3263   -4.0341   -0.0163 H   0  0  0  0  0  0  0  0  0  0  0  0
   -6.9723   -1.8775   -0.7364 H   0  0  0  0  0  0  0  0  0  0  0  0
   -5.7427   -4.0260   -0.5775 H   0  0  0  0  0  0  0  0  0  0  0  0
  1 14  1  0  0  0  0
  1 17  1  0  0  0  0
  2 13  2  0  0  0  0
  3 12  1  0  0  0  0
  3 13  1  0  0  0  0
  3 38  1  0  0  0  0
  4  5  1  0  0  0  0
  4 18  1  0  0  0  0
  4 40  1  0  0  0  0
  5 17  2  0  0  0  0
  6  7  1  0  0  0  0
  6  8  1  0  0  0  0
  6 12  1  0  0  0  0
  6 25  1  0  0  0  0
  7  9  1  0  0  0  0
  7 26  1  0  0  0  0
  7 27  1  0  0  0  0
  8 10  1  0  0  0  0
  8 28  1  0  0  0  0
  8 29  1  0  0  0  0
  9 11  1  0  0  0  0
  9 30  1  0  0  0  0
  9 31  1  0  0  0  0
 10 11  1  0  0  0  0
 10 32  1  0  0  0  0
 10 33  1  0  0  0  0
 11 34  1  0  0  0  0
 11 35  1  0  0  0  0
 12 36  1  0  0  0  0
 12 37  1  0  0  0  0
 13 14  1  0  0  0  0
 14 16  2  0  0  0  0
 15 16  1  0  0  0  0
 15 17  1  0  0  0  0
 15 18  2  0  0  0  0
 16 39  1  0  0  0  0
 18 19  1  0  0  0  0
 19 20  2  0  0  0  0
 19 21  1  0  0  0  0
 20 22  1  0  0  0  0
 20 41  1  0  0  0  0
 21 23  2  0  0  0  0
 21 42  1  0  0  0  0
 22 24  2  0  0  0  0
 22 43  1  0  0  0  0
 23 24  1  0  0  0  0
 23 44  1  0  0  0  0
 24 45  1  0  0  0  0
M  END
> <PUBCHEM_COMPOUND_CID>
49830758

> <PUBCHEM_CONFORMER_RMSD>
0.8

> <PUBCHEM_CONFORMER_DIVERSEORDER>
1
18
10
56
42
5
51
38
11
55
12
32
30
16
52
53
25
43
50
8
35
17
37
57
31
41
13
33
47
4
54
48
34
14
24
2
39
3
58
23
6
49
46
19
28
22
27
7
40
15
20
36
9
21
45
44
29
26

> <PUBCHEM_MMFF94_PARTIAL_CHARGES>
26
1 -0.11
12 0.3
13 0.71
14 -0.05
15 -0.01
16 -0.15
17 0.39
18 -0.2
19 0.05
2 -0.57
20 -0.15
21 -0.15
22 -0.15
23 -0.15
24 -0.15
3 -0.73
38 0.37
39 0.15
4 0.3
40 0.27
41 0.15
42 0.15
43 0.15
44 0.15
45 0.15
5 -0.73

> <PUBCHEM_EFFECTIVE_ROTOR_COUNT>
6.2

> <PUBCHEM_PHARMACOPHORE_FEATURES>
8
1 2 acceptor
1 3 donor
1 4 donor
1 5 acceptor
5 1 14 15 16 17 rings
5 4 5 15 17 18 rings
6 19 20 21 22 23 24 rings
6 6 7 8 9 10 11 rings

> <PUBCHEM_HEAVY_ATOM_COUNT>
24

> <PUBCHEM_ATOM_DEF_STEREO_COUNT>
0

> <PUBCHEM_ATOM_UDEF_STEREO_COUNT>
0

> <PUBCHEM_BOND_DEF_STEREO_COUNT>
0

> <PUBCHEM_BOND_UDEF_STEREO_COUNT>
0

> <PUBCHEM_ISOTOPIC_ATOM_COUNT>
0

> <PUBCHEM_COMPONENT_COUNT>
1

> <PUBCHEM_CACTVS_TAUTO_COUNT>
7

> <PUBCHEM_CONFORMER_ID>
02F85B6600000001

> <PUBCHEM_MMFF94_ENERGY>
69.6641

> <PUBCHEM_FEATURE_SELFOVERLAP>
40.864

> <PUBCHEM_SHAPE_FINGERPRINT>
10319688 67 17202500909594087113
10483366 6 18263910078780763549
10571361 74 18334287631224838034
10622 236 17896304827968439234
10939801 23 18270398438365997678
11796584 16 18340208471295920900
11809386 21 18335141986170975201
11963148 33 17837203045464602902
12107183 9 18340780264940653785
12144603 126 18335152980987157356
12523318 42 18201153261046999192
12596602 18 18273213067852901832
12760667 363 18341613750478026879
12839892 36 18272653407132668950
13533116 47 18337953514533664400
13540713 5 18266761192934022269
14251751 18 18342736325621207722
14347332 77 18408322198634261005
14844126 61 18411422782949180259
14866123 147 18341902875144724977
15019793 15 17472705101272445947
15183329 4 14490183895745355628
15188451 53 18412820283407585358
15250474 111 18335707130647229238
15352361 1 18341055215376251127
15728490 51 18411415142693080958
17857418 61 18335422369846333926
19319366 153 17545326735757207596
20028762 73 18334853867334584370
20567600 70 18410854408262256818
20843269 155 18410853282912610786
21033648 29 16415195607987179952
21223535 225 15068608353887568463
21315759 148 17560805377881617878
21703447 108 18269268126816248328
21728266 224 18410294683591878548
23559900 14 18267859661469716641
23622692 118 18410855481650743981
255183 313 18124613989734491713
3004659 81 18187641461680249967
312425 54 17702675336784556994
314194 84 18114472184462195336
316301 35 18341048639406852472
335352 9 18412263944247511925
3882209 13 17053548118520907238
397830 11 18130774669469278680
439807 62 18187368787561546843
463206 1 18264211477061259603
50080093 196 17318158425292137674
5085150 59 18272080557717493175
5104073 3 17988089988401685313
559249 180 18335420132706403821
57035037 87 13542470818432270291
5924683 9 18411700950231418689
6034566 193 11497305062942528295
6201320 77 17098087037698413827
6431902 208 18260272962096683666
76465 3 18408886247751377820
7970288 3 18409726261940332026
96874 4 18260820497671176138

> <PUBCHEM_SHAPE_MULTIPOLES>
476.95
16.38
3.94
1.02
12.97
0.35
-0.02
-15.68
0.87
-3.32
0.75
0.94
-0.02
-2.59

> <PUBCHEM_SHAPE_SELFOVERLAP>
1023.127

> <PUBCHEM_SHAPE_VOLUME>
265.9

> <PUBCHEM_COORDINATE_TYPE>
2
5
10

$$$$
