49830639
  -OEChem-10052120443D

 61 65  0     0  0  0  0  0  0999 V2000
    1.5439   -1.9390    0.5624 O   0  0  0  0  0  0  0  0  0  0  0  0
   10.7078   -0.0009    0.8547 O   0  0  0  0  0  0  0  0  0  0  0  0
    5.8625    0.0839   -0.3061 N   0  0  0  0  0  0  0  0  0  0  0  0
    8.7234    0.3617   -0.2938 N   0  0  0  0  0  0  0  0  0  0  0  0
   -3.1002    1.4111    1.1635 N   0  0  0  0  0  0  0  0  0  0  0  0
   -4.3992    1.7969    1.0734 N   0  0  0  0  0  0  0  0  0  0  0  0
   10.6759    1.6025   -0.7863 N   0  0  0  0  0  0  0  0  0  0  0  0
   -8.2598    0.1165   -1.2260 N   0  0  0  0  0  0  0  0  0  0  0  0
  -11.5784    0.7536   -1.0761 N   0  0  0  0  0  0  0  0  0  0  0  0
    6.6565   -0.4608    0.8028 C   0  0  0  0  0  0  0  0  0  0  0  0
    6.4865    1.3109   -0.8170 C   0  0  0  0  0  0  0  0  0  0  0  0
    8.0718   -0.7890    0.3342 C   0  0  0  0  0  0  0  0  0  0  0  0
    7.9133    1.0503   -1.3075 C   0  0  0  0  0  0  0  0  0  0  0  0
    4.4903    0.3470    0.1257 C   0  0  0  0  0  0  0  0  0  0  0  0
    3.6850   -0.9481    0.1490 C   0  0  0  0  0  0  0  0  0  0  0  0
   -4.0374   -1.6186   -0.4518 C   0  0  0  0  0  0  0  0  0  0  0  0
   -4.1093   -0.2654    0.1673 C   0  0  0  0  0  0  0  0  0  0  0  0
   -1.8769   -0.7574    0.4025 C   0  0  0  0  0  0  0  0  0  0  0  0
   -2.5274   -1.8464   -0.2431 C   0  0  0  0  0  0  0  0  0  0  0  0
   -2.9075    0.1907    0.6316 C   0  0  0  0  0  0  0  0  0  0  0  0
    2.2438   -0.7025    0.5745 C   0  0  0  0  0  0  0  0  0  0  0  0
   10.0784    0.6136   -0.0129 C   0  0  0  0  0  0  0  0  0  0  0  0
   -5.0060    0.7619    0.4617 C   0  0  0  0  0  0  0  0  0  0  0  0
   -0.5294   -0.7548    0.6844 C   0  0  0  0  0  0  0  0  0  0  0  0
    0.1982   -1.8854    0.3065 C   0  0  0  0  0  0  0  0  0  0  0  0
   -1.7986   -2.9624   -0.6135 C   0  0  0  0  0  0  0  0  0  0  0  0
   -0.4275   -2.9749   -0.3335 C   0  0  0  0  0  0  0  0  0  0  0  0
   -6.4166    0.7957    0.1834 C   0  0  0  0  0  0  0  0  0  0  0  0
   12.0644    1.9718   -0.6245 C   0  0  0  0  0  0  0  0  0  0  0  0
   -7.2923    1.5017    1.0009 C   0  0  0  0  0  0  0  0  0  0  0  0
   -6.9458    0.1257   -0.9078 C   0  0  0  0  0  0  0  0  0  0  0  0
   -8.6511    1.5159    0.7062 C   0  0  0  0  0  0  0  0  0  0  0  0
   -9.0804    0.8137   -0.4085 C   0  0  0  0  0  0  0  0  0  0  0  0
  -10.4575    0.7806   -0.7765 C   0  0  0  0  0  0  0  0  0  0  0  0
    6.7045    0.2546    1.6349 H   0  0  0  0  0  0  0  0  0  0  0  0
    6.2174   -1.3850    1.1917 H   0  0  0  0  0  0  0  0  0  0  0  0
    5.9066    1.7086   -1.6587 H   0  0  0  0  0  0  0  0  0  0  0  0
    6.5052    2.0840   -0.0369 H   0  0  0  0  0  0  0  0  0  0  0  0
    8.0505   -1.5908   -0.4145 H   0  0  0  0  0  0  0  0  0  0  0  0
    8.6623   -1.1549    1.1804 H   0  0  0  0  0  0  0  0  0  0  0  0
    8.3461    2.0107   -1.5914 H   0  0  0  0  0  0  0  0  0  0  0  0
    7.9044    0.4104   -2.1979 H   0  0  0  0  0  0  0  0  0  0  0  0
    3.9984    1.0202   -0.5890 H   0  0  0  0  0  0  0  0  0  0  0  0
    4.4593    0.8506    1.1006 H   0  0  0  0  0  0  0  0  0  0  0  0
    4.1200   -1.6861    0.8325 H   0  0  0  0  0  0  0  0  0  0  0  0
    3.6927   -1.4202   -0.8424 H   0  0  0  0  0  0  0  0  0  0  0  0
   -4.2756   -1.6059   -1.5177 H   0  0  0  0  0  0  0  0  0  0  0  0
   -4.6245   -2.3577    0.0984 H   0  0  0  0  0  0  0  0  0  0  0  0
    2.2172   -0.2848    1.5877 H   0  0  0  0  0  0  0  0  0  0  0  0
    1.8049    0.0176   -0.1286 H   0  0  0  0  0  0  0  0  0  0  0  0
   -0.0898    0.0904    1.2008 H   0  0  0  0  0  0  0  0  0  0  0  0
   -2.2696   -3.8056   -1.1064 H   0  0  0  0  0  0  0  0  0  0  0  0
   -2.4350    2.0401    1.5971 H   0  0  0  0  0  0  0  0  0  0  0  0
    0.1635   -3.8430   -0.6168 H   0  0  0  0  0  0  0  0  0  0  0  0
   10.2026    1.9897   -1.5914 H   0  0  0  0  0  0  0  0  0  0  0  0
   12.3202    2.0158    0.4373 H   0  0  0  0  0  0  0  0  0  0  0  0
   12.2221    2.9478   -1.0890 H   0  0  0  0  0  0  0  0  0  0  0  0
   12.6840    1.2193   -1.1188 H   0  0  0  0  0  0  0  0  0  0  0  0
   -6.9446    2.0430    1.8771 H   0  0  0  0  0  0  0  0  0  0  0  0
   -6.3300   -0.4315   -1.6055 H   0  0  0  0  0  0  0  0  0  0  0  0
   -9.3420    2.0629    1.3395 H   0  0  0  0  0  0  0  0  0  0  0  0
  1 21  1  0  0  0  0
  1 25  1  0  0  0  0
  2 22  2  0  0  0  0
  3 10  1  0  0  0  0
  3 11  1  0  0  0  0
  3 14  1  0  0  0  0
  4 12  1  0  0  0  0
  4 13  1  0  0  0  0
  4 22  1  0  0  0  0
  5  6  1  0  0  0  0
  5 20  1  0  0  0  0
  5 53  1  0  0  0  0
  6 23  2  0  0  0  0
  7 22  1  0  0  0  0
  7 29  1  0  0  0  0
  7 55  1  0  0  0  0
  8 31  1  0  0  0  0
  8 33  2  0  0  0  0
  9 34  3  0  0  0  0
 10 12  1  0  0  0  0
 10 35  1  0  0  0  0
 10 36  1  0  0  0  0
 11 13  1  0  0  0  0
 11 37  1  0  0  0  0
 11 38  1  0  0  0  0
 12 39  1  0  0  0  0
 12 40  1  0  0  0  0
 13 41  1  0  0  0  0
 13 42  1  0  0  0  0
 14 15  1  0  0  0  0
 14 43  1  0  0  0  0
 14 44  1  0  0  0  0
 15 21  1  0  0  0  0
 15 45  1  0  0  0  0
 15 46  1  0  0  0  0
 16 17  1  0  0  0  0
 16 19  1  0  0  0  0
 16 47  1  0  0  0  0
 16 48  1  0  0  0  0
 17 20  2  0  0  0  0
 17 23  1  0  0  0  0
 18 19  2  0  0  0  0
 18 20  1  0  0  0  0
 18 24  1  0  0  0  0
 19 26  1  0  0  0  0
 21 49  1  0  0  0  0
 21 50  1  0  0  0  0
 23 28  1  0  0  0  0
 24 25  2  0  0  0  0
 24 51  1  0  0  0  0
 25 27  1  0  0  0  0
 26 27  2  0  0  0  0
 26 52  1  0  0  0  0
 27 54  1  0  0  0  0
 28 30  1  0  0  0  0
 28 31  2  0  0  0  0
 29 56  1  0  0  0  0
 29 57  1  0  0  0  0
 29 58  1  0  0  0  0
 30 32  2  0  0  0  0
 30 59  1  0  0  0  0
 31 60  1  0  0  0  0
 32 33  1  0  0  0  0
 32 61  1  0  0  0  0
 33 34  1  0  0  0  0
M  END
> <PUBCHEM_COMPOUND_CID>
49830639

> <PUBCHEM_CONFORMER_RMSD>
1

> <PUBCHEM_CONFORMER_DIVERSEORDER>
1
95
145
146
98
175
28
164
183
99
77
64
97
158
93
55
162
113
112
60
30
160
169
31
35
156
101
157
56
106
68
128
7
88
144
29
153
20
173
94
24
184
61
168
54
21
186
155
172
53
26
127
12
180
140
119
141
57
50
19
154
177
121
82
96
34
148
161
110
91
86
178
22
83
105
9
72
159
166
5
130
65
138
111
47
92
81
4
181
124
129
14
52
85
3
42
10
66
90
109
133
58
120
115
185
49
36
102
163
136
114
142
16
45
71
182
116
37
118
139
39
126
17
46
76
117
171
32
123
75
107
165
70
134
167
100
59
48
38
143
51
78
23
125
11
137
87
150
89
6
62
79
108
27
8
73
15
84
40
2
43
41
63
74
132
147
122
149
80
131
151
67
13
18
152
179
44
170
69
174
135
103
176
25
33
104

> <PUBCHEM_MMFF94_PARTIAL_CHARGES>
41
1 -0.36
10 0.27
11 0.27
12 0.3
13 0.3
14 0.27
16 0.32
17 -0.18
18 0.05
19 -0.14
2 -0.57
20 -0.2
21 0.28
22 0.69
23 0.23
24 -0.15
25 0.08
26 -0.15
27 -0.15
28 0.05
29 0.3
3 -0.81
30 -0.15
31 0.16
32 -0.15
33 0.38
34 0.48
4 -0.66
5 0.3
51 0.15
52 0.15
53 0.27
54 0.15
55 0.37
59 0.15
6 -0.71
60 0.15
61 0.15
7 -0.73
8 -0.62
9 -0.56

> <PUBCHEM_EFFECTIVE_ROTOR_COUNT>
9.4

> <PUBCHEM_PHARMACOPHORE_FEATURES>
13
1 1 acceptor
1 2 acceptor
1 3 cation
1 5 donor
1 6 acceptor
1 7 donor
1 8 acceptor
1 9 acceptor
5 16 17 18 19 20 rings
5 5 6 17 20 23 rings
6 18 19 24 25 26 27 rings
6 3 4 10 11 12 13 rings
6 8 28 30 31 32 33 rings

> <PUBCHEM_HEAVY_ATOM_COUNT>
34

> <PUBCHEM_ATOM_DEF_STEREO_COUNT>
0

> <PUBCHEM_ATOM_UDEF_STEREO_COUNT>
0

> <PUBCHEM_BOND_DEF_STEREO_COUNT>
0

> <PUBCHEM_BOND_UDEF_STEREO_COUNT>
0

> <PUBCHEM_ISOTOPIC_ATOM_COUNT>
0

> <PUBCHEM_COMPONENT_COUNT>
1

> <PUBCHEM_CACTVS_TAUTO_COUNT>
4

> <PUBCHEM_CONFORMER_ID>
02F85AEF00000001

> <PUBCHEM_MMFF94_ENERGY>
97.6308

> <PUBCHEM_FEATURE_SELFOVERLAP>
66.313

> <PUBCHEM_SHAPE_FINGERPRINT>
10 15 17458345226014563763
10054150 59 16620084429322256743
10165383 225 18411134727618555739
10429389 143 17677045751765920069
10930396 42 16081368557872726111
11672396 167 8285898166346030241
12089408 11 18334292098665344178
12522641 33 17847062164135546087
12559415 43 18261101985264055972
12664476 115 18408318891689369236
12741549 16 14345797141172357735
13553643 46 17458063755185803981
13947947 19 18335421300288740309
14150022 121 14490464254041613495
14344974 52 17775279499606823081
14428016 86 18408888416973528442
15064981 194 18265343987022653215
15183329 4 18202006525774252274
15247644 1 12535627184752705469
15274700 256 18041848436673884747
15343295 29 18408601462773647396
155225 1 18333731316615158052
1577012 14 18335135406582336402
15773216 30 16486421966676195487
15840311 113 18260832549623669790
15890870 6 18410855447391167435
16087824 20 18260830411109485372
16992610 120 18131634482497488359
1818759 1 10592043561898138092
20105231 36 13254786959589105581
20505436 4 18259979375212510946
20609170 92 17274831258997537455
20771845 65 10231746803678891082
21057603 95 18201451268319398793
21895431 317 12175360059447705652
232437 2 10159696898048023488
24771293 8 18341337691756035953
306946 40 16660354863074192791
335352 9 18273213101316010001
3986486 107 16845578595081927208
3991529 128 18259992577798721992
4516262 110 18261105245149105034
4760202 170 17917148421074917936
4874694 18 17988926670186407366
5028188 123 16917066651868262409
54039377 194 10519985963111503827
5719381 82 9439404623173675964
57828716 42 18336547210294602939
57828716 72 17822003200335146989
57828716 8 13973973074711593740
6673363 416 17703792509972307145
9953998 17 15502380045073809955

> <PUBCHEM_SHAPE_MULTIPOLES>
653.1
45.29
2.3
1.05
58.31
1.37
0.06
-33.28
10.93
-0.19
0.17
-0.54
-0.23
-2.22

> <PUBCHEM_SHAPE_SELFOVERLAP>
1422.258

> <PUBCHEM_SHAPE_VOLUME>
354.7

> <PUBCHEM_COORDINATE_TYPE>
2
5
10

$$$$
