24905293
  -OEChem-10052115143D

 36 38  0     0  0  0  0  0  0999 V2000
    4.9999    0.0607    0.1725 O   0  0  0  0  0  0  0  0  0  0  0  0
    3.7009   -0.1668   -2.2740 O   0  0  0  0  0  0  0  0  0  0  0  0
   -2.4702    1.3281   -0.2810 N   0  0  0  0  0  0  0  0  0  0  0  0
   -1.1559    1.6185   -0.2717 N   0  0  0  0  0  0  0  0  0  0  0  0
   -3.9454   -0.5813   -0.0798 N   0  0  0  0  0  0  0  0  0  0  0  0
   -2.6997   -2.6536    0.2429 N   0  0  0  0  0  0  0  0  0  0  0  0
   -0.3158   -2.7237    0.3406 N   0  0  0  0  0  0  0  0  0  0  0  0
   -1.5076   -0.6215    0.0148 C   0  0  0  0  0  0  0  0  0  0  0  0
   -0.5751    0.4272   -0.0913 C   0  0  0  0  0  0  0  0  0  0  0  0
   -2.7365    0.0016   -0.1135 C   0  0  0  0  0  0  0  0  0  0  0  0
    0.8616    0.3332   -0.0264 C   0  0  0  0  0  0  0  0  0  0  0  0
   -3.4325    2.3896   -0.4580 C   0  0  0  0  0  0  0  0  0  0  0  0
   -1.5138   -2.0002    0.1989 C   0  0  0  0  0  0  0  0  0  0  0  0
    1.6000    0.1270   -1.1917 C   0  0  0  0  0  0  0  0  0  0  0  0
    1.5136    0.4476    1.2014 C   0  0  0  0  0  0  0  0  0  0  0  0
   -3.6229    3.1992    0.8155 C   0  0  0  0  0  0  0  0  0  0  0  0
    2.9906    0.0354   -1.1293 C   0  0  0  0  0  0  0  0  0  0  0  0
    2.9041    0.3556    1.2637 C   0  0  0  0  0  0  0  0  0  0  0  0
    3.6425    0.1496    0.0985 C   0  0  0  0  0  0  0  0  0  0  0  0
   -3.8258   -1.9141    0.1027 C   0  0  0  0  0  0  0  0  0  0  0  0
    5.5882    0.1882    1.4654 C   0  0  0  0  0  0  0  0  0  0  0  0
   -3.0735    3.0295   -1.2718 H   0  0  0  0  0  0  0  0  0  0  0  0
   -4.3837    1.9509   -0.7767 H   0  0  0  0  0  0  0  0  0  0  0  0
    1.0934    0.0367   -2.1505 H   0  0  0  0  0  0  0  0  0  0  0  0
    0.9512    0.6077    2.1185 H   0  0  0  0  0  0  0  0  0  0  0  0
   -3.9723    2.5640    1.6364 H   0  0  0  0  0  0  0  0  0  0  0  0
   -4.3627    3.9895    0.6551 H   0  0  0  0  0  0  0  0  0  0  0  0
   -2.6856    3.6692    1.1319 H   0  0  0  0  0  0  0  0  0  0  0  0
    3.3422    0.4532    2.2510 H   0  0  0  0  0  0  0  0  0  0  0  0
   -4.7573   -2.4685    0.1429 H   0  0  0  0  0  0  0  0  0  0  0  0
    0.5824   -2.2642    0.3132 H   0  0  0  0  0  0  0  0  0  0  0  0
   -0.3655   -3.7249    0.4737 H   0  0  0  0  0  0  0  0  0  0  0  0
    3.0845   -0.2213   -3.0245 H   0  0  0  0  0  0  0  0  0  0  0  0
    6.6716    0.0932    1.3372 H   0  0  0  0  0  0  0  0  0  0  0  0
    5.2751   -0.6217    2.1329 H   0  0  0  0  0  0  0  0  0  0  0  0
    5.4050    1.1783    1.8964 H   0  0  0  0  0  0  0  0  0  0  0  0
  1 19  1  0  0  0  0
  1 21  1  0  0  0  0
  2 17  1  0  0  0  0
  2 33  1  0  0  0  0
  3  4  1  0  0  0  0
  3 10  1  0  0  0  0
  3 12  1  0  0  0  0
  4  9  2  0  0  0  0
  5 10  2  0  0  0  0
  5 20  1  0  0  0  0
  6 13  1  0  0  0  0
  6 20  2  0  0  0  0
  7 13  1  0  0  0  0
  7 31  1  0  0  0  0
  7 32  1  0  0  0  0
  8  9  1  0  0  0  0
  8 10  1  0  0  0  0
  8 13  2  0  0  0  0
  9 11  1  0  0  0  0
 11 14  2  0  0  0  0
 11 15  1  0  0  0  0
 12 16  1  0  0  0  0
 12 22  1  0  0  0  0
 12 23  1  0  0  0  0
 14 17  1  0  0  0  0
 14 24  1  0  0  0  0
 15 18  2  0  0  0  0
 15 25  1  0  0  0  0
 16 26  1  0  0  0  0
 16 27  1  0  0  0  0
 16 28  1  0  0  0  0
 17 19  2  0  0  0  0
 18 19  1  0  0  0  0
 18 29  1  0  0  0  0
 20 30  1  0  0  0  0
 21 34  1  0  0  0  0
 21 35  1  0  0  0  0
 21 36  1  0  0  0  0
M  END
> <PUBCHEM_COMPOUND_CID>
24905293

> <PUBCHEM_CONFORMER_RMSD>
0.6

> <PUBCHEM_CONFORMER_DIVERSEORDER>
2
5
6
1
7
4
3

> <PUBCHEM_MMFF94_PARTIAL_CHARGES>
26
1 -0.36
10 0.11
11 0.05
12 0.26
13 0.41
14 -0.15
15 -0.15
17 0.08
18 -0.15
19 0.08
2 -0.53
20 0.47
21 0.28
24 0.15
25 0.15
29 0.15
3 0.31
30 0.15
31 0.4
32 0.4
33 0.45
4 -0.71
5 -0.57
6 -0.62
7 -0.9
9 0.23

> <PUBCHEM_EFFECTIVE_ROTOR_COUNT>
3

> <PUBCHEM_PHARMACOPHORE_FEATURES>
10
1 1 acceptor
1 2 donor
1 4 acceptor
1 7 cation
1 7 donor
3 3 5 10 cation
3 5 6 20 cation
5 3 4 8 9 10 rings
6 11 14 15 17 18 19 rings
6 5 6 8 10 13 20 rings

> <PUBCHEM_HEAVY_ATOM_COUNT>
21

> <PUBCHEM_ATOM_DEF_STEREO_COUNT>
0

> <PUBCHEM_ATOM_UDEF_STEREO_COUNT>
0

> <PUBCHEM_BOND_DEF_STEREO_COUNT>
0

> <PUBCHEM_BOND_UDEF_STEREO_COUNT>
0

> <PUBCHEM_ISOTOPIC_ATOM_COUNT>
0

> <PUBCHEM_COMPONENT_COUNT>
1

> <PUBCHEM_CACTVS_TAUTO_COUNT>
15

> <PUBCHEM_CONFORMER_ID>
017C064D00000002

> <PUBCHEM_MMFF94_ENERGY>
58.92

> <PUBCHEM_FEATURE_SELFOVERLAP>
51.025

> <PUBCHEM_SHAPE_FINGERPRINT>
10319926 262 18269254843251827520
11315181 36 18114174264129704112
11582403 64 16692667258107512488
11796584 16 18269563737263494782
12107183 9 17974557001918443666
12236239 1 17458339758241478034
12500047 106 18411411778810470104
12788726 201 18190758598545919827
13140716 1 18193000550537711355
13544592 145 18127984009609336652
13583140 156 18058993061170883362
13862211 1 18263924518144606251
14178342 30 18408322155325781380
14386348 63 17918279783156078862
15042514 8 18263646341460140523
15375358 24 17917986157917282840
16752209 62 18334569166330167887
16945 1 18409449211217123567
17804303 29 18339642355782563539
18186145 218 17988372468025845368
19049666 15 18059862709700178346
200 152 16298376981233644180
20510252 161 18342458166565068825
20554085 129 17983265198271941249
20600515 1 18412544276088578444
20645477 70 16415202213620494972
20871999 31 18338815471372391676
21033648 29 17417513779506760776
21065201 7 18412268311601562742
22112679 90 17821730541644568716
23175994 123 17346885576096256352
23402539 116 18339068384943164831
23557571 272 18272093807601930084
23559900 14 18271534074900423110
23598291 2 17530688714455481316
312423 11 17749682881992466860
4214541 1 18408879633855072440
474 4 16590570122278968956
5104073 3 18338227177191334578
573450 72 18187357731993259112
602551 16 18410291436971123274
6049 1 17988932196717059912
67856867 119 17824824675367268212
7615 1 17749394810009306396
77492 1 17458344152003603924
81228 2 18336267946297167201
9709674 26 18343305855480552158
9862522 239 17605827028426848341

> <PUBCHEM_SHAPE_MULTIPOLES>
395.53
9.44
2.63
1.25
8.35
0.04
-0.33
1.66
1.38
-5.12
0.51
1.77
0.16
0.24

> <PUBCHEM_SHAPE_SELFOVERLAP>
868.753

> <PUBCHEM_SHAPE_VOLUME>
214.3

> <PUBCHEM_COORDINATE_TYPE>
2
5
10

$$$$
