49830645
  -OEChem-10052120443D

 71 74  0     0  0  0  0  0  0999 V2000
    1.2265    4.5271   -1.8022 O   0  0  0  0  0  0  0  0  0  0  0  0
   -0.0568   -3.3228   -0.1633 O   0  0  0  0  0  0  0  0  0  0  0  0
    3.0080   -0.2636    0.1930 N   0  0  0  0  0  0  0  0  0  0  0  0
    4.2882   -0.6216   -0.0051 N   0  0  0  0  0  0  0  0  0  0  0  0
    0.7227   -1.1520    0.2224 N   0  0  0  0  0  0  0  0  0  0  0  0
   -0.6982    3.8836   -0.6423 N   0  0  0  0  0  0  0  0  0  0  0  0
   -1.5379   -1.5833    0.3504 N   0  0  0  0  0  0  0  0  0  0  0  0
   -1.9633    3.1979    2.8091 N   0  0  0  0  0  0  0  0  0  0  0  0
    5.4210   -2.7002   -0.5555 C   0  0  0  0  0  0  0  0  0  0  0  0
    4.1996   -1.9265   -0.2764 C   0  0  0  0  0  0  0  0  0  0  0  0
    5.3898   -3.3466   -1.9828 C   0  0  0  0  0  0  0  0  0  0  0  0
    5.6195   -3.8696    0.4687 C   0  0  0  0  0  0  0  0  0  0  0  0
    6.7725   -1.8966   -0.5106 C   0  0  0  0  0  0  0  0  0  0  0  0
    2.8732   -2.3979   -0.2518 C   0  0  0  0  0  0  0  0  0  0  0  0
    2.1210   -1.2909    0.0570 C   0  0  0  0  0  0  0  0  0  0  0  0
    2.7038    1.0619    0.5079 C   0  0  0  0  0  0  0  0  0  0  0  0
    1.8661    1.8024   -0.3261 C   0  0  0  0  0  0  0  0  0  0  0  0
    1.5612    3.1266   -0.0110 C   0  0  0  0  0  0  0  0  0  0  0  0
    3.2368    1.6458    1.6573 C   0  0  0  0  0  0  0  0  0  0  0  0
    0.6884    3.8996   -0.8804 C   0  0  0  0  0  0  0  0  0  0  0  0
   -1.2898    3.1276    0.4595 C   0  0  0  0  0  0  0  0  0  0  0  0
    2.0942    3.7104    1.1384 C   0  0  0  0  0  0  0  0  0  0  0  0
    2.9317    2.9699    1.9727 C   0  0  0  0  0  0  0  0  0  0  0  0
   -0.2639   -2.1443    0.1073 C   0  0  0  0  0  0  0  0  0  0  0  0
   -1.6369    4.6193   -1.4778 C   0  0  0  0  0  0  0  0  0  0  0  0
   -1.3805    3.9729    1.7215 C   0  0  0  0  0  0  0  0  0  0  0  0
   -2.7860   -2.2180    0.3367 C   0  0  0  0  0  0  0  0  0  0  0  0
   -3.9604   -1.5335   -0.0165 C   0  0  0  0  0  0  0  0  0  0  0  0
   -2.1260    3.7762   -2.6372 C   0  0  0  0  0  0  0  0  0  0  0  0
   -5.1938   -2.2275   -0.0121 C   0  0  0  0  0  0  0  0  0  0  0  0
   -2.8271   -3.5673    0.6892 C   0  0  0  0  0  0  0  0  0  0  0  0
   -3.9377   -0.1756   -0.3740 C   0  0  0  0  0  0  0  0  0  0  0  0
   -5.2165   -3.5855    0.3454 C   0  0  0  0  0  0  0  0  0  0  0  0
   -4.0401   -4.2496    0.6935 C   0  0  0  0  0  0  0  0  0  0  0  0
   -6.3681   -1.5431   -0.3652 C   0  0  0  0  0  0  0  0  0  0  0  0
   -5.1141    0.4886   -0.7222 C   0  0  0  0  0  0  0  0  0  0  0  0
   -6.3270   -0.1938   -0.7178 C   0  0  0  0  0  0  0  0  0  0  0  0
    6.3002   -3.9221   -2.1850 H   0  0  0  0  0  0  0  0  0  0  0  0
    4.5367   -4.0266   -2.0893 H   0  0  0  0  0  0  0  0  0  0  0  0
    5.2956   -2.5747   -2.7555 H   0  0  0  0  0  0  0  0  0  0  0  0
    6.5289   -4.4426    0.2555 H   0  0  0  0  0  0  0  0  0  0  0  0
    5.6934   -3.4806    1.4910 H   0  0  0  0  0  0  0  0  0  0  0  0
    4.7739   -4.5664    0.4406 H   0  0  0  0  0  0  0  0  0  0  0  0
    6.9279   -1.4509    0.4788 H   0  0  0  0  0  0  0  0  0  0  0  0
    6.7665   -1.0831   -1.2455 H   0  0  0  0  0  0  0  0  0  0  0  0
    7.6331   -2.5393   -0.7283 H   0  0  0  0  0  0  0  0  0  0  0  0
    2.5235   -3.4036   -0.4334 H   0  0  0  0  0  0  0  0  0  0  0  0
    0.4031   -0.2217    0.4742 H   0  0  0  0  0  0  0  0  0  0  0  0
    1.4537    1.3588   -1.2304 H   0  0  0  0  0  0  0  0  0  0  0  0
    3.8883    1.0824    2.3209 H   0  0  0  0  0  0  0  0  0  0  0  0
   -2.2862    2.7877    0.1518 H   0  0  0  0  0  0  0  0  0  0  0  0
   -0.7085    2.2211    0.6538 H   0  0  0  0  0  0  0  0  0  0  0  0
    1.8741    4.7449    1.3889 H   0  0  0  0  0  0  0  0  0  0  0  0
    3.3477    3.4250    2.8668 H   0  0  0  0  0  0  0  0  0  0  0  0
   -1.1272    5.5038   -1.8759 H   0  0  0  0  0  0  0  0  0  0  0  0
   -2.4761    4.9716   -0.8686 H   0  0  0  0  0  0  0  0  0  0  0  0
   -0.4007    4.3377    2.0351 H   0  0  0  0  0  0  0  0  0  0  0  0
   -2.0015    4.8575    1.5405 H   0  0  0  0  0  0  0  0  0  0  0  0
   -1.5452   -0.5693    0.3695 H   0  0  0  0  0  0  0  0  0  0  0  0
   -1.2911    3.4433   -3.2628 H   0  0  0  0  0  0  0  0  0  0  0  0
   -2.6529    2.8834   -2.2851 H   0  0  0  0  0  0  0  0  0  0  0  0
   -2.8136    4.3521   -3.2641 H   0  0  0  0  0  0  0  0  0  0  0  0
   -1.9464   -4.1153    1.0079 H   0  0  0  0  0  0  0  0  0  0  0  0
   -3.0231    0.4078   -0.4095 H   0  0  0  0  0  0  0  0  0  0  0  0
   -6.1536   -4.1383    0.3578 H   0  0  0  0  0  0  0  0  0  0  0  0
   -4.0735   -5.2976    0.9773 H   0  0  0  0  0  0  0  0  0  0  0  0
   -7.3274   -2.0565   -0.3689 H   0  0  0  0  0  0  0  0  0  0  0  0
   -2.8990    2.8888    2.5486 H   0  0  0  0  0  0  0  0  0  0  0  0
   -2.0770    3.7949    3.6272 H   0  0  0  0  0  0  0  0  0  0  0  0
   -5.0825    1.5384   -0.9996 H   0  0  0  0  0  0  0  0  0  0  0  0
   -7.2424    0.3237   -0.9896 H   0  0  0  0  0  0  0  0  0  0  0  0
  1 20  2  0  0  0  0
  2 24  2  0  0  0  0
  3  4  1  0  0  0  0
  3 15  1  0  0  0  0
  3 16  1  0  0  0  0
  4 10  2  0  0  0  0
  5 15  1  0  0  0  0
  5 24  1  0  0  0  0
  5 48  1  0  0  0  0
  6 20  1  0  0  0  0
  6 21  1  0  0  0  0
  6 25  1  0  0  0  0
  7 24  1  0  0  0  0
  7 27  1  0  0  0  0
  7 59  1  0  0  0  0
  8 26  1  0  0  0  0
  8 68  1  0  0  0  0
  8 69  1  0  0  0  0
  9 10  1  0  0  0  0
  9 11  1  0  0  0  0
  9 12  1  0  0  0  0
  9 13  1  0  0  0  0
 10 14  1  0  0  0  0
 11 38  1  0  0  0  0
 11 39  1  0  0  0  0
 11 40  1  0  0  0  0
 12 41  1  0  0  0  0
 12 42  1  0  0  0  0
 12 43  1  0  0  0  0
 13 44  1  0  0  0  0
 13 45  1  0  0  0  0
 13 46  1  0  0  0  0
 14 15  2  0  0  0  0
 14 47  1  0  0  0  0
 16 17  1  0  0  0  0
 16 19  2  0  0  0  0
 17 18  2  0  0  0  0
 17 49  1  0  0  0  0
 18 20  1  0  0  0  0
 18 22  1  0  0  0  0
 19 23  1  0  0  0  0
 19 50  1  0  0  0  0
 21 26  1  0  0  0  0
 21 51  1  0  0  0  0
 21 52  1  0  0  0  0
 22 23  2  0  0  0  0
 22 53  1  0  0  0  0
 23 54  1  0  0  0  0
 25 29  1  0  0  0  0
 25 55  1  0  0  0  0
 25 56  1  0  0  0  0
 26 57  1  0  0  0  0
 26 58  1  0  0  0  0
 27 28  1  0  0  0  0
 27 31  2  0  0  0  0
 28 30  1  0  0  0  0
 28 32  2  0  0  0  0
 29 60  1  0  0  0  0
 29 61  1  0  0  0  0
 29 62  1  0  0  0  0
 30 33  1  0  0  0  0
 30 35  2  0  0  0  0
 31 34  1  0  0  0  0
 31 63  1  0  0  0  0
 32 36  1  0  0  0  0
 32 64  1  0  0  0  0
 33 34  2  0  0  0  0
 33 65  1  0  0  0  0
 34 66  1  0  0  0  0
 35 37  1  0  0  0  0
 35 67  1  0  0  0  0
 36 37  2  0  0  0  0
 36 70  1  0  0  0  0
 37 71  1  0  0  0  0
M  END
> <PUBCHEM_COMPOUND_CID>
49830645

> <PUBCHEM_CONFORMER_RMSD>
1.2

> <PUBCHEM_CONFORMER_DIVERSEORDER>
1
32
78
76
58
44
47
59
69
10
77
49
52
56
11
16
72
61
62
63
21
42
54
40
73
27
36
71
45
14
68
48
29
38
26
17
34
57
31
66
51
60
70
55
74
13
25
53
18
28
75
30
4
23
19
24
7
12
39
46
9
33
65
50
64
67
20
43
15
3
41
35
5
8
37
22
6
2

> <PUBCHEM_MMFF94_PARTIAL_CHARGES>
47
1 -0.57
10 0.11
14 -0.15
15 -0.09
16 -0.02
17 -0.15
18 0.09
19 -0.15
2 -0.57
20 0.54
21 0.3
22 -0.15
23 -0.15
24 0.69
25 0.3
26 0.27
27 0.12
3 0.59
31 -0.15
32 -0.15
33 -0.15
34 -0.15
35 -0.15
36 -0.15
37 -0.15
4 -0.71
47 0.15
48 0.37
49 0.15
5 -0.49
50 0.15
53 0.15
54 0.15
59 0.37
6 -0.66
63 0.15
64 0.15
65 0.15
66 0.15
67 0.15
68 0.36
69 0.36
7 -0.55
70 0.15
71 0.15
8 -0.99
9 0.18

> <PUBCHEM_EFFECTIVE_ROTOR_COUNT>
11

> <PUBCHEM_PHARMACOPHORE_FEATURES>
12
1 1 acceptor
1 2 acceptor
1 4 acceptor
1 5 donor
1 7 donor
1 8 cation
1 8 donor
4 9 11 12 13 hydrophobe
5 3 4 10 14 15 rings
6 16 17 18 19 22 23 rings
6 27 28 30 31 33 34 rings
6 28 30 32 35 36 37 rings

> <PUBCHEM_HEAVY_ATOM_COUNT>
37

> <PUBCHEM_ATOM_DEF_STEREO_COUNT>
0

> <PUBCHEM_ATOM_UDEF_STEREO_COUNT>
0

> <PUBCHEM_BOND_DEF_STEREO_COUNT>
0

> <PUBCHEM_BOND_UDEF_STEREO_COUNT>
0

> <PUBCHEM_ISOTOPIC_ATOM_COUNT>
0

> <PUBCHEM_COMPONENT_COUNT>
1

> <PUBCHEM_CACTVS_TAUTO_COUNT>
7

> <PUBCHEM_CONFORMER_ID>
02F85AF500000001

> <PUBCHEM_MMFF94_ENERGY>
123.0163

> <PUBCHEM_FEATURE_SELFOVERLAP>
60.972

> <PUBCHEM_SHAPE_FINGERPRINT>
10815517 723 18198073481970257187
10864689 126 18190164695427984533
11093857 5 18121200014065891336
11093857 51 17326332624366312237
11513181 2 18128536157493538919
12925494 130 18409725184820678641
12978246 48 17687743157541847049
13692115 27 18343026545632010810
14068700 675 18201155464486534753
14114211 80 16534573262112515033
150020 26 17979348987119901801
15320467 1 17831581251518216213
15400415 2 17184754031692387013
16067689 391 17195435292622939766
16993438 75 17828491271250879913
19311894 1 17838057009548572266
21049683 271 18268159819901993270
21133410 127 17608925731652048317
22223350 30 17981028723223295826
23559900 14 18411415146276574051
3103668 31 18117841001831886693
3298306 158 17837494416462226817
4144715 1 18263084490923310803
42626532 9 17896613949380914539
4408954 87 16193432771134201746
4435113 14 17557151606037370038
46939830 39 17894919498703351093
9961470 85 18413383246879606737

> <PUBCHEM_SHAPE_MULTIPOLES>
719.82
13.91
8.38
1.67
1.66
5.81
-0.01
-18.86
2.46
-0.31
0.66
-0.25
2.39
3.06

> <PUBCHEM_SHAPE_SELFOVERLAP>
1547.056

> <PUBCHEM_SHAPE_VOLUME>
396.7

> <PUBCHEM_COORDINATE_TYPE>
2
5
10

$$$$
