49830388
  -OEChem-10062121533D

 46 49  0     0  0  0  0  0  0999 V2000
    7.1090   -1.3090   -1.5319 S   0  0  0  0  0  0  0  0  0  0  0  0
   -2.1742   -0.8426    0.6010 O   0  0  0  0  0  0  0  0  0  0  0  0
   -1.2122    1.1046   -0.2778 N   0  0  0  0  0  0  0  0  0  0  0  0
   -3.5051    0.8329   -0.3425 N   0  0  0  0  0  0  0  0  0  0  0  0
    5.7040   -1.4162   -2.4020 N   0  0  0  0  0  0  0  0  0  0  0  0
    4.2935    0.3143    0.5905 C   0  0  0  0  0  0  0  0  0  0  0  0
    2.8805    0.5171    0.3677 C   0  0  0  0  0  0  0  0  0  0  0  0
    5.0665   -0.3265   -0.4026 C   0  0  0  0  0  0  0  0  0  0  0  0
    6.4305   -0.5117   -0.1664 C   0  0  0  0  0  0  0  0  0  0  0  0
    2.4323    1.6854   -0.2487 C   0  0  0  0  0  0  0  0  0  0  0  0
    1.9646   -0.4555    0.7686 C   0  0  0  0  0  0  0  0  0  0  0  0
    4.9011    0.7442    1.7746 C   0  0  0  0  0  0  0  0  0  0  0  0
    0.1522    0.9088   -0.0627 C   0  0  0  0  0  0  0  0  0  0  0  0
   -4.8115    0.3095   -0.1971 C   0  0  0  0  0  0  0  0  0  0  0  0
    1.0683    1.8813   -0.4639 C   0  0  0  0  0  0  0  0  0  0  0  0
    0.6004   -0.2596    0.5535 C   0  0  0  0  0  0  0  0  0  0  0  0
   -6.2894   -1.4507    0.5477 C   0  0  0  0  0  0  0  0  0  0  0  0
   -7.1980    0.5230   -0.5087 C   0  0  0  0  0  0  0  0  0  0  0  0
    7.0503   -0.0838    1.0178 C   0  0  0  0  0  0  0  0  0  0  0  0
   -5.9099    1.0385   -0.6532 C   0  0  0  0  0  0  0  0  0  0  0  0
   -5.0014   -0.9351    0.4035 C   0  0  0  0  0  0  0  0  0  0  0  0
    6.2618    0.5469    1.9831 C   0  0  0  0  0  0  0  0  0  0  0  0
   -7.3877   -0.7216    0.0917 C   0  0  0  0  0  0  0  0  0  0  0  0
    4.7296   -0.8637   -1.6870 C   0  0  0  0  0  0  0  0  0  0  0  0
   -2.2910    0.2482    0.0519 C   0  0  0  0  0  0  0  0  0  0  0  0
   -6.4924   -2.7818    1.1887 C   0  0  0  0  0  0  0  0  0  0  0  0
   -8.3718    1.3032   -0.9959 C   0  0  0  0  0  0  0  0  0  0  0  0
    3.1331    2.4534   -0.5676 H   0  0  0  0  0  0  0  0  0  0  0  0
    2.2986   -1.3718    1.2500 H   0  0  0  0  0  0  0  0  0  0  0  0
    4.3164    1.2390    2.5472 H   0  0  0  0  0  0  0  0  0  0  0  0
    0.7331    2.7965   -0.9454 H   0  0  0  0  0  0  0  0  0  0  0  0
   -0.0435   -1.0585    0.8923 H   0  0  0  0  0  0  0  0  0  0  0  0
   -5.7631    2.0101   -1.1196 H   0  0  0  0  0  0  0  0  0  0  0  0
   -4.1962   -1.5519    0.7764 H   0  0  0  0  0  0  0  0  0  0  0  0
    8.1120   -0.2355    1.1855 H   0  0  0  0  0  0  0  0  0  0  0  0
    6.7193    0.8870    2.9085 H   0  0  0  0  0  0  0  0  0  0  0  0
   -8.3926   -1.1220    0.2036 H   0  0  0  0  0  0  0  0  0  0  0  0
    3.7440   -0.8612   -2.1338 H   0  0  0  0  0  0  0  0  0  0  0  0
   -1.4616    1.9798   -0.7320 H   0  0  0  0  0  0  0  0  0  0  0  0
   -3.4487    1.7449   -0.7888 H   0  0  0  0  0  0  0  0  0  0  0  0
   -7.5299   -2.9208    1.5108 H   0  0  0  0  0  0  0  0  0  0  0  0
   -5.8630   -2.8831    2.0794 H   0  0  0  0  0  0  0  0  0  0  0  0
   -6.2416   -3.5807    0.4838 H   0  0  0  0  0  0  0  0  0  0  0  0
   -9.1838    0.6398   -1.3127 H   0  0  0  0  0  0  0  0  0  0  0  0
   -8.1056    1.9186   -1.8620 H   0  0  0  0  0  0  0  0  0  0  0  0
   -8.7437    1.9577   -0.2014 H   0  0  0  0  0  0  0  0  0  0  0  0
  1  5  1  0  0  0  0
  1  9  1  0  0  0  0
  2 25  2  0  0  0  0
  3 13  1  0  0  0  0
  3 25  1  0  0  0  0
  3 39  1  0  0  0  0
  4 14  1  0  0  0  0
  4 25  1  0  0  0  0
  4 40  1  0  0  0  0
  5 24  2  0  0  0  0
  6  7  1  0  0  0  0
  6  8  2  0  0  0  0
  6 12  1  0  0  0  0
  7 10  2  0  0  0  0
  7 11  1  0  0  0  0
  8  9  1  0  0  0  0
  8 24  1  0  0  0  0
  9 19  2  0  0  0  0
 10 15  1  0  0  0  0
 10 28  1  0  0  0  0
 11 16  2  0  0  0  0
 11 29  1  0  0  0  0
 12 22  2  0  0  0  0
 12 30  1  0  0  0  0
 13 15  2  0  0  0  0
 13 16  1  0  0  0  0
 14 20  2  0  0  0  0
 14 21  1  0  0  0  0
 15 31  1  0  0  0  0
 16 32  1  0  0  0  0
 17 21  2  0  0  0  0
 17 23  1  0  0  0  0
 17 26  1  0  0  0  0
 18 20  1  0  0  0  0
 18 23  2  0  0  0  0
 18 27  1  0  0  0  0
 19 22  1  0  0  0  0
 19 35  1  0  0  0  0
 20 33  1  0  0  0  0
 21 34  1  0  0  0  0
 22 36  1  0  0  0  0
 23 37  1  0  0  0  0
 24 38  1  0  0  0  0
 26 41  1  0  0  0  0
 26 42  1  0  0  0  0
 26 43  1  0  0  0  0
 27 44  1  0  0  0  0
 27 45  1  0  0  0  0
 27 46  1  0  0  0  0
M  END
> <PUBCHEM_COMPOUND_CID>
49830388

> <PUBCHEM_CONFORMER_RMSD>
0.8

> <PUBCHEM_CONFORMER_DIVERSEORDER>
2
7
15
21
18
8
16
4
9
6
20
10
1
12
19
3
5
17
14
13
11

> <PUBCHEM_MMFF94_PARTIAL_CHARGES>
37
1 0.18
10 -0.15
11 -0.15
12 -0.15
13 0.12
14 0.12
15 -0.15
16 -0.15
17 -0.14
18 -0.14
19 -0.15
2 -0.57
20 -0.15
21 -0.15
22 -0.15
23 -0.15
24 0.14
25 0.69
26 0.14
27 0.14
28 0.15
29 0.15
3 -0.55
30 0.15
31 0.15
32 0.15
33 0.15
34 0.15
35 0.15
36 0.15
37 0.15
38 0.15
39 0.37
4 -0.55
40 0.37
5 -0.51
9 0.04

> <PUBCHEM_EFFECTIVE_ROTOR_COUNT>
5

> <PUBCHEM_PHARMACOPHORE_FEATURES>
8
1 2 acceptor
1 3 donor
1 4 donor
1 5 acceptor
5 1 5 8 9 24 rings
6 14 17 18 20 21 23 rings
6 6 8 9 12 19 22 rings
6 7 10 11 13 15 16 rings

> <PUBCHEM_HEAVY_ATOM_COUNT>
27

> <PUBCHEM_ATOM_DEF_STEREO_COUNT>
0

> <PUBCHEM_ATOM_UDEF_STEREO_COUNT>
0

> <PUBCHEM_BOND_DEF_STEREO_COUNT>
0

> <PUBCHEM_BOND_UDEF_STEREO_COUNT>
0

> <PUBCHEM_ISOTOPIC_ATOM_COUNT>
0

> <PUBCHEM_COMPONENT_COUNT>
1

> <PUBCHEM_CACTVS_TAUTO_COUNT>
9

> <PUBCHEM_CONFORMER_ID>
02F859F400000002

> <PUBCHEM_MMFF94_ENERGY>
83.5284

> <PUBCHEM_FEATURE_SELFOVERLAP>
40.703

> <PUBCHEM_SHAPE_FINGERPRINT>
10050765 1 17825111664638426721
10299344 5 16732700545626277489
10638233 991 15430039863541205581
10951579 204 18194694665453829261
11181472 205 13985478337955246623
11315181 36 18060698408428033025
11524674 6 18201998859274031399
11719270 70 18409726257492280170
11963148 33 18113610196963508514
12741549 16 18130495363726314480
13533116 47 16702304534076571958
13617811 41 18186805747239284828
13668630 136 18410577287986596015
13685833 64 18060703879435444766
13782708 43 18265338485639019691
14068700 675 17676487246202109645
14170010 4 17918272061084436040
14294032 229 17605838014832392277
14344974 204 18196373852255147199
15183329 4 18113339691390383749
15301273 46 18272649030455245433
15419008 47 18343292661099082025
15419008 91 18339342137590626953
15510794 2 18273212006495118095
1577012 14 16588025718769099371
15840311 113 14117507780402797746
15849732 13 18272367581269418517
20157964 124 16988840597322457368
21150785 3 16588027922055466070
21267235 1 18260834821592089425
21315759 40 17167576073066369224
21344244 78 15338833107314249282
220451 1 17167857565734502713
22956985 138 17463112558552793154
2303208 19 18344151392617055959
23081809 10 16588022403001651353
23522609 53 16878803585969049029
23559900 14 18261670502022203833
23569943 247 17980771441655555442
23576562 1 17241907559950321630
249057 3 18259981588027113181
3004659 81 18040437710897818116
335352 9 18040710365240603373
3383291 50 18411139177648423155
34797466 226 18412263956826861204
3633792 109 17632296727399004907
3663271 9 15626224636806536159
397830 11 18127963320598995225
4073 2 17489013985537134894
4340502 62 17132110260940657774
58902169 19 16153713145409195734
59755656 215 18411139108443194655
9831232 110 18410862048893441678

> <PUBCHEM_SHAPE_MULTIPOLES>
538.68
26.79
1.75
1.52
23.14
0.52
-0.22
6.45
-2.6
2.26
-0.03
-3.41
0.41
3.64

> <PUBCHEM_SHAPE_SELFOVERLAP>
1176.17

> <PUBCHEM_SHAPE_VOLUME>
295.5

> <PUBCHEM_COORDINATE_TYPE>
2
5
10

$$$$
