49830366
  -OEChem-10052120443D

 69 72  0     0  0  0  0  0  0999 V2000
   -2.9749   -0.8551   -1.3214 S   0  0  0  0  0  0  0  0  0  0  0  0
   10.2160    1.0877   -2.2635 F   0  0  0  0  0  0  0  0  0  0  0  0
   -5.4693    0.7383   -1.7194 O   0  0  0  0  0  0  0  0  0  0  0  0
    5.8239    0.1952   -0.8851 O   0  0  0  0  0  0  0  0  0  0  0  0
   -8.1729   -1.1849   -0.1107 N   0  0  0  0  0  0  0  0  0  0  0  0
   -6.2926    1.9059    0.1082 N   0  0  0  0  0  0  0  0  0  0  0  0
   -2.3167    2.8630    1.0880 N   0  0  0  0  0  0  0  0  0  0  0  0
   -0.0568    2.2288    1.3683 N   0  0  0  0  0  0  0  0  0  0  0  0
    4.7580   -0.8832    0.9011 N   0  0  0  0  0  0  0  0  0  0  0  0
    7.0653   -0.8001    0.8288 N   0  0  0  0  0  0  0  0  0  0  0  0
   -8.0694   -0.3663    1.0911 C   0  0  0  0  0  0  0  0  0  0  0  0
   -8.4997    1.0811    0.8366 C   0  0  0  0  0  0  0  0  0  0  0  0
   -7.6844    1.8026   -0.2348 C   0  0  0  0  0  0  0  0  0  0  0  0
   -7.2965   -2.3539   -0.0158 C   0  0  0  0  0  0  0  0  0  0  0  0
   -9.5578   -1.6057   -0.3303 C   0  0  0  0  0  0  0  0  0  0  0  0
   -1.5796    0.8111    0.0788 C   0  0  0  0  0  0  0  0  0  0  0  0
   -2.8704    0.6089   -0.4177 C   0  0  0  0  0  0  0  0  0  0  0  0
   -3.8972    1.5274   -0.1689 C   0  0  0  0  0  0  0  0  0  0  0  0
   -0.7031   -0.2587   -0.3038 C   0  0  0  0  0  0  0  0  0  0  0  0
   -7.7066   -3.2553    1.1364 C   0  0  0  0  0  0  0  0  0  0  0  0
   -9.6917   -2.4044   -1.6157 C   0  0  0  0  0  0  0  0  0  0  0  0
   -5.2836    1.3566   -0.6746 C   0  0  0  0  0  0  0  0  0  0  0  0
    0.6968   -0.4193    0.0045 C   0  0  0  0  0  0  0  0  0  0  0  0
   -1.3362    1.9663    0.8386 C   0  0  0  0  0  0  0  0  0  0  0  0
   -1.3304   -1.2202   -1.0600 C   0  0  0  0  0  0  0  0  0  0  0  0
   -3.5469    2.6297    0.5907 C   0  0  0  0  0  0  0  0  0  0  0  0
    1.6645    0.1048   -0.8527 C   0  0  0  0  0  0  0  0  0  0  0  0
    1.0829   -1.0980    1.1604 C   0  0  0  0  0  0  0  0  0  0  0  0
    3.4041   -0.7290    0.6016 C   0  0  0  0  0  0  0  0  0  0  0  0
    3.0181   -0.0501   -0.5543 C   0  0  0  0  0  0  0  0  0  0  0  0
    2.4366   -1.2531    1.4589 C   0  0  0  0  0  0  0  0  0  0  0  0
    5.8825   -0.4294    0.1693 C   0  0  0  0  0  0  0  0  0  0  0  0
    8.3996   -0.5429    0.4346 C   0  0  0  0  0  0  0  0  0  0  0  0
    8.6550    0.1595   -0.7432 C   0  0  0  0  0  0  0  0  0  0  0  0
    9.4593   -0.9924    1.2224 C   0  0  0  0  0  0  0  0  0  0  0  0
    9.9701    0.4122   -1.1332 C   0  0  0  0  0  0  0  0  0  0  0  0
   10.7744   -0.7396    0.8324 C   0  0  0  0  0  0  0  0  0  0  0  0
   11.0298   -0.0374   -0.3455 C   0  0  0  0  0  0  0  0  0  0  0  0
   -8.6717   -0.7654    1.9176 H   0  0  0  0  0  0  0  0  0  0  0  0
   -7.0333   -0.3386    1.4537 H   0  0  0  0  0  0  0  0  0  0  0  0
   -8.4026    1.6313    1.7820 H   0  0  0  0  0  0  0  0  0  0  0  0
   -9.5614    1.1288    0.5698 H   0  0  0  0  0  0  0  0  0  0  0  0
   -7.8080    1.3209   -1.2101 H   0  0  0  0  0  0  0  0  0  0  0  0
   -8.0555    2.8288   -0.3331 H   0  0  0  0  0  0  0  0  0  0  0  0
   -6.2627   -2.0187    0.1407 H   0  0  0  0  0  0  0  0  0  0  0  0
   -7.2577   -2.9171   -0.9540 H   0  0  0  0  0  0  0  0  0  0  0  0
  -10.1823   -0.7141   -0.4624 H   0  0  0  0  0  0  0  0  0  0  0  0
   -9.9996   -2.1520    0.5106 H   0  0  0  0  0  0  0  0  0  0  0  0
   -6.0677    2.3892    0.9714 H   0  0  0  0  0  0  0  0  0  0  0  0
   -6.9708   -4.0641    1.2234 H   0  0  0  0  0  0  0  0  0  0  0  0
   -8.6714   -3.7457    0.9805 H   0  0  0  0  0  0  0  0  0  0  0  0
   -7.7151   -2.7509    2.1066 H   0  0  0  0  0  0  0  0  0  0  0  0
  -10.7513   -2.5005   -1.8783 H   0  0  0  0  0  0  0  0  0  0  0  0
   -9.2987   -3.4212   -1.5225 H   0  0  0  0  0  0  0  0  0  0  0  0
   -9.1934   -1.9073   -2.4552 H   0  0  0  0  0  0  0  0  0  0  0  0
   -0.9093   -2.1252   -1.4777 H   0  0  0  0  0  0  0  0  0  0  0  0
   -4.2550    3.4194    0.8225 H   0  0  0  0  0  0  0  0  0  0  0  0
    1.3789    0.6377   -1.7568 H   0  0  0  0  0  0  0  0  0  0  0  0
    0.3412   -1.5114    1.8399 H   0  0  0  0  0  0  0  0  0  0  0  0
    3.7046    0.3841   -1.2669 H   0  0  0  0  0  0  0  0  0  0  0  0
    2.7231   -1.7838    2.3633 H   0  0  0  0  0  0  0  0  0  0  0  0
    0.7323    1.6200    1.2357 H   0  0  0  0  0  0  0  0  0  0  0  0
    0.0650    3.0755    1.9089 H   0  0  0  0  0  0  0  0  0  0  0  0
    4.9606   -1.3889    1.7599 H   0  0  0  0  0  0  0  0  0  0  0  0
    6.9604   -1.3175    1.6979 H   0  0  0  0  0  0  0  0  0  0  0  0
    7.8919    0.5403   -1.4065 H   0  0  0  0  0  0  0  0  0  0  0  0
    9.2741   -1.5410    2.1424 H   0  0  0  0  0  0  0  0  0  0  0  0
   11.5996   -1.0895    1.4456 H   0  0  0  0  0  0  0  0  0  0  0  0
   12.0536    0.1597   -0.6493 H   0  0  0  0  0  0  0  0  0  0  0  0
  1 17  1  0  0  0  0
  1 25  1  0  0  0  0
  2 36  1  0  0  0  0
  3 22  2  0  0  0  0
  4 32  2  0  0  0  0
  5 11  1  0  0  0  0
  5 14  1  0  0  0  0
  5 15  1  0  0  0  0
  6 13  1  0  0  0  0
  6 22  1  0  0  0  0
  6 49  1  0  0  0  0
  7 24  2  0  0  0  0
  7 26  1  0  0  0  0
  8 24  1  0  0  0  0
  8 62  1  0  0  0  0
  8 63  1  0  0  0  0
  9 29  1  0  0  0  0
  9 32  1  0  0  0  0
  9 64  1  0  0  0  0
 10 32  1  0  0  0  0
 10 33  1  0  0  0  0
 10 65  1  0  0  0  0
 11 12  1  0  0  0  0
 11 39  1  0  0  0  0
 11 40  1  0  0  0  0
 12 13  1  0  0  0  0
 12 41  1  0  0  0  0
 12 42  1  0  0  0  0
 13 43  1  0  0  0  0
 13 44  1  0  0  0  0
 14 20  1  0  0  0  0
 14 45  1  0  0  0  0
 14 46  1  0  0  0  0
 15 21  1  0  0  0  0
 15 47  1  0  0  0  0
 15 48  1  0  0  0  0
 16 17  2  0  0  0  0
 16 19  1  0  0  0  0
 16 24  1  0  0  0  0
 17 18  1  0  0  0  0
 18 22  1  0  0  0  0
 18 26  2  0  0  0  0
 19 23  1  0  0  0  0
 19 25  2  0  0  0  0
 20 50  1  0  0  0  0
 20 51  1  0  0  0  0
 20 52  1  0  0  0  0
 21 53  1  0  0  0  0
 21 54  1  0  0  0  0
 21 55  1  0  0  0  0
 23 27  2  0  0  0  0
 23 28  1  0  0  0  0
 25 56  1  0  0  0  0
 26 57  1  0  0  0  0
 27 30  1  0  0  0  0
 27 58  1  0  0  0  0
 28 31  2  0  0  0  0
 28 59  1  0  0  0  0
 29 30  2  0  0  0  0
 29 31  1  0  0  0  0
 30 60  1  0  0  0  0
 31 61  1  0  0  0  0
 33 34  2  0  0  0  0
 33 35  1  0  0  0  0
 34 36  1  0  0  0  0
 34 66  1  0  0  0  0
 35 37  2  0  0  0  0
 35 67  1  0  0  0  0
 36 38  2  0  0  0  0
 37 38  1  0  0  0  0
 37 68  1  0  0  0  0
 38 69  1  0  0  0  0
M  END
> <PUBCHEM_COMPOUND_CID>
49830366

> <PUBCHEM_CONFORMER_RMSD>
1.2

> <PUBCHEM_CONFORMER_DIVERSEORDER>
2
23
121
132
47
145
117
52
113
130
72
128
101
115
126
150
149
36
154
135
77
125
33
122
53
41
138
82
153
108
103
105
151
46
51
104
79
116
65
112
102
143
114
78
142
55
140
68
118
70
152
5
129
61
91
66
90
97
83
80
147
76
127
87
57
136
48
42
86
59
69
14
94
26
131
120
63
21
4
124
85
38
19
64
99
40
24
18
133
81
123
111
144
146
35
54
100
44
20
89
141
71
58
62
16
119
134
43
93
31
50
88
25
98
74
106
139
10
3
39
56
28
49
29
9
17
8
95
73
13
110
30
92
67
75
109
22
12
84
107
37
27
34
1
11
137
148
32
45
7
15
6
60
96

> <PUBCHEM_MMFF94_PARTIAL_CHARGES>
49
1 -0.08
10 -0.55
11 0.27
13 0.3
14 0.27
15 0.27
17 0.04
18 0.09
19 -0.05
2 -0.19
22 0.54
23 0.05
24 0.41
25 -0.11
26 0.16
27 -0.15
28 -0.15
29 0.12
3 -0.57
30 -0.15
31 -0.15
32 0.69
33 0.12
34 -0.15
35 -0.15
36 0.19
37 -0.15
38 -0.15
4 -0.57
49 0.37
5 -0.81
56 0.15
57 0.15
58 0.15
59 0.15
6 -0.73
60 0.15
61 0.15
62 0.4
63 0.4
64 0.37
65 0.37
66 0.15
67 0.15
68 0.15
69 0.15
7 -0.62
8 -0.9
9 -0.55

> <PUBCHEM_EFFECTIVE_ROTOR_COUNT>
13

> <PUBCHEM_PHARMACOPHORE_FEATURES>
12
1 10 donor
1 3 acceptor
1 4 acceptor
1 5 cation
1 6 donor
1 8 donor
1 9 donor
3 7 8 24 cation
5 1 16 17 19 25 rings
6 23 27 28 29 30 31 rings
6 33 34 35 36 37 38 rings
6 7 16 17 18 24 26 rings

> <PUBCHEM_HEAVY_ATOM_COUNT>
38

> <PUBCHEM_ATOM_DEF_STEREO_COUNT>
0

> <PUBCHEM_ATOM_UDEF_STEREO_COUNT>
0

> <PUBCHEM_BOND_DEF_STEREO_COUNT>
0

> <PUBCHEM_BOND_UDEF_STEREO_COUNT>
0

> <PUBCHEM_ISOTOPIC_ATOM_COUNT>
0

> <PUBCHEM_COMPONENT_COUNT>
1

> <PUBCHEM_CACTVS_TAUTO_COUNT>
21

> <PUBCHEM_CONFORMER_ID>
02F859DE00000002

> <PUBCHEM_MMFF94_ENERGY>
104.7483

> <PUBCHEM_FEATURE_SELFOVERLAP>
61.011

> <PUBCHEM_SHAPE_FINGERPRINT>
10076449 9 17918274251037501515
10162869 55 17530965791812987414
10674148 151 10879985852975818854
12013929 94 18411419536281445363
12089408 11 18187364303488368172
12522641 126 18116153458159190925
13740195 50 18342453763959658050
13947947 19 18334859433653923868
14344974 52 18342174493256140416
15065858 18 13695589953734248912
15347591 1 18120933897691127883
15461852 350 18335422365783410170
15510794 2 18272655623837167798
15728490 51 18335138683299166947
16992752 21 18413672396503647009
17686467 74 18410567396719800104
20105231 36 17847059982587402502
21057603 130 17313107467422888339
21095123 145 18343300375455482791
21792965 169 18341889744738696197
21792965 68 12751243598189497043
21927370 108 17203614782637945984
232437 2 18187082841623640114
249057 3 17917987287868293004
3092352 35 18333729105799381210
335507 130 18201998849992545870
3525247 94 18187080625452580122
395649 100 17386010602565838619
5381727 24 18113336393435899042
54039377 194 18342174488385848423
54583773 228 18334017215793214484
59521270 166 9439405726516054185
6126387 218 9511461121483292255
67123 10 18040154003059949992
9663363 56 18131347506585244381

> <PUBCHEM_SHAPE_MULTIPOLES>
736.97
41.52
2.53
1.43
62.63
0.19
-0.23
-14.2
-4.63
-8.08
0.61
0.58
-0.14
-2.16

> <PUBCHEM_SHAPE_SELFOVERLAP>
1571.179

> <PUBCHEM_SHAPE_VOLUME>
414.3

> <PUBCHEM_COORDINATE_TYPE>
2
5
10

$$$$
