49830520
  -OEChem-10062121533D

 36 38  0     0  0  0  0  0  0999 V2000
    4.7325    3.2001   -0.3046 F   0  0  0  0  0  0  0  0  0  0  0  0
   -5.5176    1.1361   -0.3796 O   0  0  0  0  0  0  0  0  0  0  0  0
   -4.3429   -0.6489   -1.1544 O   0  0  0  0  0  0  0  0  0  0  0  0
   -2.0533   -0.9706    0.3885 N   0  0  0  0  0  0  0  0  0  0  0  0
    2.5142   -1.8699   -0.1372 N   0  0  0  0  0  0  0  0  0  0  0  0
    0.2347   -1.3879    0.1259 N   0  0  0  0  0  0  0  0  0  0  0  0
   -1.3362   -3.1959    0.2737 N   0  0  0  0  0  0  0  0  0  0  0  0
    1.0030   -3.6579    0.0033 N   0  0  0  0  0  0  0  0  0  0  0  0
   -2.0862    0.4416    0.4144 C   0  0  0  0  0  0  0  0  0  0  0  0
   -3.1990    1.1407   -0.0529 C   0  0  0  0  0  0  0  0  0  0  0  0
   -0.9861    1.1368    0.9165 C   0  0  0  0  0  0  0  0  0  0  0  0
    3.0781   -0.5811   -0.1798 C   0  0  0  0  0  0  0  0  0  0  0  0
   -3.2118    2.5350   -0.0180 C   0  0  0  0  0  0  0  0  0  0  0  0
   -1.0016   -1.8955    0.2569 C   0  0  0  0  0  0  0  0  0  0  0  0
   -0.9988    2.5312    0.9514 C   0  0  0  0  0  0  0  0  0  0  0  0
    1.1861   -2.3275    0.0038 C   0  0  0  0  0  0  0  0  0  0  0  0
   -2.1117    3.2303    0.4842 C   0  0  0  0  0  0  0  0  0  0  0  0
    4.3758   -0.3718    0.2872 C   0  0  0  0  0  0  0  0  0  0  0  0
    2.3394    0.4869   -0.6889 C   0  0  0  0  0  0  0  0  0  0  0  0
   -4.3645    0.4439   -0.5826 C   0  0  0  0  0  0  0  0  0  0  0  0
    4.9347    0.9054    0.2450 C   0  0  0  0  0  0  0  0  0  0  0  0
    2.8983    1.7641   -0.7311 C   0  0  0  0  0  0  0  0  0  0  0  0
    4.1958    1.9734   -0.2641 C   0  0  0  0  0  0  0  0  0  0  0  0
   -0.2830   -4.0186    0.1422 C   0  0  0  0  0  0  0  0  0  0  0  0
   -2.9643   -1.4177    0.3732 H   0  0  0  0  0  0  0  0  0  0  0  0
   -0.1216    0.6373    1.3402 H   0  0  0  0  0  0  0  0  0  0  0  0
   -4.0576    3.1100   -0.3860 H   0  0  0  0  0  0  0  0  0  0  0  0
    3.1922   -2.6244   -0.0871 H   0  0  0  0  0  0  0  0  0  0  0  0
   -0.1467    3.0726    1.3523 H   0  0  0  0  0  0  0  0  0  0  0  0
   -2.1211    4.3161    0.5112 H   0  0  0  0  0  0  0  0  0  0  0  0
    4.9617   -1.1955    0.6871 H   0  0  0  0  0  0  0  0  0  0  0  0
    1.3466    0.3611   -1.1076 H   0  0  0  0  0  0  0  0  0  0  0  0
    5.9448    1.0689    0.6087 H   0  0  0  0  0  0  0  0  0  0  0  0
    2.3272    2.5942   -1.1365 H   0  0  0  0  0  0  0  0  0  0  0  0
   -0.4921   -5.0810    0.1488 H   0  0  0  0  0  0  0  0  0  0  0  0
   -6.2969    0.6608   -0.7388 H   0  0  0  0  0  0  0  0  0  0  0  0
  1 23  1  0  0  0  0
  2 20  1  0  0  0  0
  2 36  1  0  0  0  0
  3 20  2  0  0  0  0
  4  9  1  0  0  0  0
  4 14  1  0  0  0  0
  4 25  1  0  0  0  0
  5 12  1  0  0  0  0
  5 16  1  0  0  0  0
  5 28  1  0  0  0  0
  6 14  1  0  0  0  0
  6 16  2  0  0  0  0
  7 14  2  0  0  0  0
  7 24  1  0  0  0  0
  8 16  1  0  0  0  0
  8 24  2  0  0  0  0
  9 10  1  0  0  0  0
  9 11  2  0  0  0  0
 10 13  2  0  0  0  0
 10 20  1  0  0  0  0
 11 15  1  0  0  0  0
 11 26  1  0  0  0  0
 12 18  2  0  0  0  0
 12 19  1  0  0  0  0
 13 17  1  0  0  0  0
 13 27  1  0  0  0  0
 15 17  2  0  0  0  0
 15 29  1  0  0  0  0
 17 30  1  0  0  0  0
 18 21  1  0  0  0  0
 18 31  1  0  0  0  0
 19 22  2  0  0  0  0
 19 32  1  0  0  0  0
 21 23  2  0  0  0  0
 21 33  1  0  0  0  0
 22 23  1  0  0  0  0
 22 34  1  0  0  0  0
 24 35  1  0  0  0  0
M  END
> <PUBCHEM_COMPOUND_CID>
49830520

> <PUBCHEM_CONFORMER_RMSD>
0.8

> <PUBCHEM_CONFORMER_DIVERSEORDER>
1
107
77
111
82
56
6
44
92
67
57
51
70
54
38
12
20
25
36
110
88
35
115
47
104
64
17
91
15
14
41
86
78
120
116
43
113
119
7
79
9
102
108
48
13
85
94
73
100
21
103
105
8
29
69
71
31
101
93
72
52
66
32
37
59
114
50
63
87
42
97
90
83
80
118
81
46
117
62
61
89
53
65
109
68
39
45
55
112
96
40
98
18
16
95
27
4
106
11
24
28
34
22
58
33
84
30
49
19
74
99
75
10
26
76
23
5
60
3
2

> <PUBCHEM_MMFF94_PARTIAL_CHARGES>
36
1 -0.19
10 0.09
11 -0.15
12 0.1
13 -0.15
14 0.72
15 -0.15
16 0.72
17 -0.15
18 -0.15
19 -0.15
2 -0.65
20 0.63
21 -0.15
22 -0.15
23 0.19
24 0.47
25 0.4
26 0.15
27 0.15
28 0.4
29 0.15
3 -0.57
30 0.15
31 0.15
32 0.15
33 0.15
34 0.15
35 0.15
36 0.5
4 -0.6
5 -0.6
6 -0.62
7 -0.62
8 -0.62
9 0.1

> <PUBCHEM_EFFECTIVE_ROTOR_COUNT>
5

> <PUBCHEM_PHARMACOPHORE_FEATURES>
10
1 2 acceptor
1 3 acceptor
1 4 donor
1 5 donor
3 2 3 20 anion
4 4 6 7 14 cation
4 5 6 8 16 cation
6 12 18 19 21 22 23 rings
6 6 7 8 14 16 24 rings
6 9 10 11 13 15 17 rings

> <PUBCHEM_HEAVY_ATOM_COUNT>
24

> <PUBCHEM_ATOM_DEF_STEREO_COUNT>
0

> <PUBCHEM_ATOM_UDEF_STEREO_COUNT>
0

> <PUBCHEM_BOND_DEF_STEREO_COUNT>
0

> <PUBCHEM_BOND_UDEF_STEREO_COUNT>
0

> <PUBCHEM_ISOTOPIC_ATOM_COUNT>
0

> <PUBCHEM_COMPONENT_COUNT>
1

> <PUBCHEM_CACTVS_TAUTO_COUNT>
21

> <PUBCHEM_CONFORMER_ID>
02F85A7800000001

> <PUBCHEM_MMFF94_ENERGY>
88.1198

> <PUBCHEM_FEATURE_SELFOVERLAP>
50.846

> <PUBCHEM_SHAPE_FINGERPRINT>
10090160 65 18336540534765048175
10411042 1 17257937520935904170
10498660 4 18339651156297198852
108634 29 18271816756509658244
11135609 187 18410853287614072073
11370993 70 18409448068360424284
12403260 363 18338790109653889882
12788726 201 17828758779215789306
13583140 156 17167864170645195880
13617811 41 18338502102623447593
138480 1 17545324073177988226
14466204 15 18048593721313645754
14767858 380 18269258197400005815
14787075 74 18272928349580043181
14790565 3 18341621374045386785
14932702 115 17983025736607719776
15840311 113 18050297960490721461
17492 89 17980198587644387319
19319366 153 18339067217161025007
19591789 44 18194687201364209075
19930381 70 18265052423099283225
20101258 96 17254568604159662026
20715895 44 18262228928952757605
22113638 7 18262520423803515404
22393880 68 18053950554368862156
22749437 52 18409454652598101520
23227448 37 18338800125306439318
23559900 14 17978785714769619891
245318 6 17896055363250948116
3117164 225 18338219541393655336
352729 6 18337966665512541146
474 4 18336547101485252643
5312544 6 18337107869479009135
6328613 192 18261683640790756180
6371009 1 18338502059277408400
67856867 119 18121489168364583755
9709674 26 18341339885650432838
9981440 41 18408602547918376442

> <PUBCHEM_SHAPE_MULTIPOLES>
449.99
9.61
4.71
0.82
1.21
2.91
0.01
-7.06
1.86
0.65
-0.44
-0.25
-0.2
-0.61

> <PUBCHEM_SHAPE_SELFOVERLAP>
983.979

> <PUBCHEM_SHAPE_VOLUME>
240.7

> <PUBCHEM_COORDINATE_TYPE>
2
5
10

$$$$
