3653771
  -OEChem-10052120443D

 35 37  0     0  0  0  0  0  0999 V2000
   -0.0963    0.1795    0.1108 N   0  0  0  0  0  0  0  0  0  0  0  0
   -2.2421    0.8541    0.0018 N   0  0  0  0  0  0  0  0  0  0  0  0
    2.2403   -0.3732    0.3977 N   0  0  0  0  0  0  0  0  0  0  0  0
    3.2573   -1.1300   -0.1522 N   0  0  0  0  0  0  0  0  0  0  0  0
   -4.2563   -2.2828   -0.2243 N   0  0  0  0  0  0  0  0  0  0  0  0
   -0.0794    1.5727    0.0410 C   0  0  0  0  0  0  0  0  0  0  0  0
   -1.4455   -0.1932    0.0268 C   0  0  0  0  0  0  0  0  0  0  0  0
    0.9437   -0.7718    0.2225 C   0  0  0  0  0  0  0  0  0  0  0  0
   -1.4237    1.9473    0.0041 C   0  0  0  0  0  0  0  0  0  0  0  0
   -1.7744   -1.5867   -0.0142 C   0  0  0  0  0  0  0  0  0  0  0  0
   -0.7840   -2.5052    0.0487 C   0  0  0  0  0  0  0  0  0  0  0  0
    0.6050   -2.0773    0.1819 C   0  0  0  0  0  0  0  0  0  0  0  0
    0.9384    2.5388   -0.0105 C   0  0  0  0  0  0  0  0  0  0  0  0
   -1.7792    3.3078   -0.0427 C   0  0  0  0  0  0  0  0  0  0  0  0
   -0.9732   -3.9985    0.0075 C   0  0  0  0  0  0  0  0  0  0  0  0
    0.5688    3.8886   -0.0616 C   0  0  0  0  0  0  0  0  0  0  0  0
   -0.7687    4.2702   -0.0709 C   0  0  0  0  0  0  0  0  0  0  0  0
    4.5214   -0.4675    0.1427 C   0  0  0  0  0  0  0  0  0  0  0  0
   -3.1430   -1.9706   -0.1299 C   0  0  0  0  0  0  0  0  0  0  0  0
    5.6911   -1.2020   -0.4791 C   0  0  0  0  0  0  0  0  0  0  0  0
    1.3494   -2.8624    0.2839 H   0  0  0  0  0  0  0  0  0  0  0  0
    1.9906    2.2862   -0.0302 H   0  0  0  0  0  0  0  0  0  0  0  0
    2.4308    0.5685    0.7080 H   0  0  0  0  0  0  0  0  0  0  0  0
   -2.8223    3.6083   -0.0670 H   0  0  0  0  0  0  0  0  0  0  0  0
   -0.5932   -4.4563    0.9278 H   0  0  0  0  0  0  0  0  0  0  0  0
   -0.4286   -4.4276   -0.8411 H   0  0  0  0  0  0  0  0  0  0  0  0
   -2.0190   -4.3009   -0.0954 H   0  0  0  0  0  0  0  0  0  0  0  0
    1.3432    4.6508   -0.0997 H   0  0  0  0  0  0  0  0  0  0  0  0
   -1.0302    5.3239   -0.1117 H   0  0  0  0  0  0  0  0  0  0  0  0
    3.1319   -1.1663   -1.1642 H   0  0  0  0  0  0  0  0  0  0  0  0
    4.5172    0.5616   -0.2391 H   0  0  0  0  0  0  0  0  0  0  0  0
    4.6761   -0.4185    1.2277 H   0  0  0  0  0  0  0  0  0  0  0  0
    5.7582   -2.2288   -0.1038 H   0  0  0  0  0  0  0  0  0  0  0  0
    5.6002   -1.2421   -1.5698 H   0  0  0  0  0  0  0  0  0  0  0  0
    6.6302   -0.6935   -0.2382 H   0  0  0  0  0  0  0  0  0  0  0  0
  1  6  1  0  0  0  0
  1  7  1  0  0  0  0
  1  8  1  0  0  0  0
  2  7  2  0  0  0  0
  2  9  1  0  0  0  0
  3  4  1  0  0  0  0
  3  8  1  0  0  0  0
  3 23  1  0  0  0  0
  4 18  1  0  0  0  0
  4 30  1  0  0  0  0
  5 19  3  0  0  0  0
  6  9  1  0  0  0  0
  6 13  2  0  0  0  0
  7 10  1  0  0  0  0
  8 12  2  0  0  0  0
  9 14  2  0  0  0  0
 10 11  2  0  0  0  0
 10 19  1  0  0  0  0
 11 12  1  0  0  0  0
 11 15  1  0  0  0  0
 12 21  1  0  0  0  0
 13 16  1  0  0  0  0
 13 22  1  0  0  0  0
 14 17  1  0  0  0  0
 14 24  1  0  0  0  0
 15 25  1  0  0  0  0
 15 26  1  0  0  0  0
 15 27  1  0  0  0  0
 16 17  2  0  0  0  0
 16 28  1  0  0  0  0
 17 29  1  0  0  0  0
 18 20  1  0  0  0  0
 18 31  1  0  0  0  0
 18 32  1  0  0  0  0
 20 33  1  0  0  0  0
 20 34  1  0  0  0  0
 20 35  1  0  0  0  0
M  END
> <PUBCHEM_COMPOUND_CID>
3653771

> <PUBCHEM_CONFORMER_RMSD>
0.6

> <PUBCHEM_CONFORMER_DIVERSEORDER>
1
5
9
7
4
3
8
6
2

> <PUBCHEM_MMFF94_PARTIAL_CHARGES>
26
1 0.33
10 0.11
11 -0.14
12 -0.15
13 -0.15
14 -0.15
15 0.14
16 -0.15
17 -0.15
18 0.27
19 0.49
2 -0.57
21 0.15
22 0.15
23 0.4
24 0.15
28 0.15
29 0.15
3 -0.51
30 0.36
4 -0.62
5 -0.56
6 -0.15
7 0.14
8 0.07
9 0.23

> <PUBCHEM_EFFECTIVE_ROTOR_COUNT>
3

> <PUBCHEM_PHARMACOPHORE_FEATURES>
7
1 3 donor
1 4 donor
1 5 acceptor
3 1 2 7 cation
5 1 2 6 7 9 rings
6 1 7 8 10 11 12 rings
6 6 9 13 14 16 17 rings

> <PUBCHEM_HEAVY_ATOM_COUNT>
20

> <PUBCHEM_ATOM_DEF_STEREO_COUNT>
0

> <PUBCHEM_ATOM_UDEF_STEREO_COUNT>
0

> <PUBCHEM_BOND_DEF_STEREO_COUNT>
0

> <PUBCHEM_BOND_UDEF_STEREO_COUNT>
0

> <PUBCHEM_ISOTOPIC_ATOM_COUNT>
0

> <PUBCHEM_COMPONENT_COUNT>
1

> <PUBCHEM_CACTVS_TAUTO_COUNT>
3

> <PUBCHEM_CONFORMER_ID>
0037C08B00000001

> <PUBCHEM_MMFF94_ENERGY>
46.3259

> <PUBCHEM_FEATURE_SELFOVERLAP>
37.234

> <PUBCHEM_SHAPE_FINGERPRINT>
10319926 262 18196908030765076106
10411042 1 18338517550776448243
10967382 1 17977944919012928441
1100329 8 18410296908664811593
11578080 2 16882681726936261678
11680986 33 17905045103279000883
11833330 49 18409162242734680906
12173636 292 18194116314142185958
12553582 1 18266755738509451574
12788726 201 18333449833613386018
13140716 1 18411427228214236937
138480 1 15816500222134917476
14508225 48 18341601672328442326
14790565 3 18267314127097614273
14955137 171 18263943187887407419
15042514 8 18337675204699729794
15475509 8 17841189703049630007
16087824 20 18266458712379750429
16945 1 18194674874428118345
19591789 44 18410014355582588409
20510252 161 18270118981464714568
21029758 11 18338512048970451119
21029758 27 18335708294361982763
2334 1 18266174114270244825
23352939 185 18199760300442975976
23366157 5 17466776499998246458
23402539 116 18343015601364120902
23557571 272 18272098193116603734
23558518 356 18117567214989566746
23559900 14 17763742487617108584
266924 87 18267296534948136167
2748010 2 18267002007649779881
283562 15 18410854322073163539
3071541 12 17905889536877941643
3091708 16 9278238208436737680
352729 6 18049996693222626738
7364860 26 17834393797318064833
81228 2 18341909488445210618
9981440 41 17903917756215703592

> <PUBCHEM_SHAPE_MULTIPOLES>
386.69
6.3
5.8
0.62
11.42
3.15
0
-3.8
-0.85
-4.57
-0.18
0.08
-0.01
-0.04

> <PUBCHEM_SHAPE_SELFOVERLAP>
842.649

> <PUBCHEM_SHAPE_VOLUME>
209.1

> <PUBCHEM_COORDINATE_TYPE>
2
5
10

$$$$
