18450667
  -OEChem-10062121543D

 49 53  0     0  0  0  0  0  0999 V2000
    0.8910    0.2857    1.7977 S   0  0  0  0  0  0  0  0  0  0  0  0
    6.2471    1.8077   -0.4528 S   0  0  0  0  0  0  0  0  0  0  0  0
    7.6629    1.4714   -0.4034 O   0  0  0  0  0  0  0  0  0  0  0  0
    5.6714    2.3320   -1.6836 O   0  0  0  0  0  0  0  0  0  0  0  0
   -6.9324    0.1440    0.2592 N   0  0  0  0  0  0  0  0  0  0  0  0
    0.3761   -1.9205   -2.0662 N   0  0  0  0  0  0  0  0  0  0  0  0
   -1.9634   -1.6557   -1.8549 N   0  0  0  0  0  0  0  0  0  0  0  0
   -1.4082   -0.1699    0.7687 C   0  0  0  0  0  0  0  0  0  0  0  0
   -0.4657   -0.7545   -0.1416 C   0  0  0  0  0  0  0  0  0  0  0  0
   -2.8415   -0.1451    0.6699 C   0  0  0  0  0  0  0  0  0  0  0  0
    0.8464   -0.5758    0.3054 C   0  0  0  0  0  0  0  0  0  0  0  0
   -4.8749    0.9377   -0.0793 C   0  0  0  0  0  0  0  0  0  0  0  0
    1.9363   -1.0649   -0.4244 C   0  0  0  0  0  0  0  0  0  0  0  0
   -5.5993   -0.1132    0.4875 C   0  0  0  0  0  0  0  0  0  0  0  0
   -3.4691    0.9204    0.0143 C   0  0  0  0  0  0  0  0  0  0  0  0
    3.3013   -0.8943    0.0106 C   0  0  0  0  0  0  0  0  0  0  0  0
   -0.8074    0.4219    1.8543 C   0  0  0  0  0  0  0  0  0  0  0  0
   -3.5900   -1.1803    1.2265 C   0  0  0  0  0  0  0  0  0  0  0  0
   -0.6653   -1.4417   -1.3494 C   0  0  0  0  0  0  0  0  0  0  0  0
   -4.9855   -1.1847    1.1459 C   0  0  0  0  0  0  0  0  0  0  0  0
   -5.8193    1.8332   -0.6548 C   0  0  0  0  0  0  0  0  0  0  0  0
   -7.0753    1.3182   -0.4305 C   0  0  0  0  0  0  0  0  0  0  0  0
    1.6250   -1.7264   -1.5993 C   0  0  0  0  0  0  0  0  0  0  0  0
    4.0229    0.2328   -0.3822 C   0  0  0  0  0  0  0  0  0  0  0  0
    5.3422    0.3980    0.0396 C   0  0  0  0  0  0  0  0  0  0  0  0
    3.8986   -1.8563    0.8251 C   0  0  0  0  0  0  0  0  0  0  0  0
    5.9398   -0.5639    0.8540 C   0  0  0  0  0  0  0  0  0  0  0  0
   -8.4070    1.8291   -0.8044 C   0  0  0  0  0  0  0  0  0  0  0  0
    5.2178   -1.6911    1.2468 C   0  0  0  0  0  0  0  0  0  0  0  0
    5.9254    3.0062    0.8213 C   0  0  0  0  0  0  0  0  0  0  0  0
   -2.8883    1.7294   -0.4223 H   0  0  0  0  0  0  0  0  0  0  0  0
   -1.2767    0.9310    2.6858 H   0  0  0  0  0  0  0  0  0  0  0  0
   -3.0979   -2.0078    1.7344 H   0  0  0  0  0  0  0  0  0  0  0  0
   -5.5674   -1.9913    1.5790 H   0  0  0  0  0  0  0  0  0  0  0  0
   -5.6003    2.7551   -1.1765 H   0  0  0  0  0  0  0  0  0  0  0  0
   -7.6930   -0.4503    0.5592 H   0  0  0  0  0  0  0  0  0  0  0  0
    2.4048   -2.1406   -2.2333 H   0  0  0  0  0  0  0  0  0  0  0  0
    3.5503    0.9833   -1.0120 H   0  0  0  0  0  0  0  0  0  0  0  0
    3.3499   -2.7404    1.1412 H   0  0  0  0  0  0  0  0  0  0  0  0
    6.9634   -0.4529    1.2002 H   0  0  0  0  0  0  0  0  0  0  0  0
   -8.9303    1.1132   -1.4465 H   0  0  0  0  0  0  0  0  0  0  0  0
   -9.0187    2.0047    0.0864 H   0  0  0  0  0  0  0  0  0  0  0  0
   -8.3284    2.7750   -1.3500 H   0  0  0  0  0  0  0  0  0  0  0  0
    5.6824   -2.4392    1.8825 H   0  0  0  0  0  0  0  0  0  0  0  0
   -2.7969   -1.3351   -1.3930 H   0  0  0  0  0  0  0  0  0  0  0  0
   -2.0520   -2.1569   -2.7296 H   0  0  0  0  0  0  0  0  0  0  0  0
    6.4707    3.9193    0.5732 H   0  0  0  0  0  0  0  0  0  0  0  0
    4.8534    3.2100    0.8549 H   0  0  0  0  0  0  0  0  0  0  0  0
    6.2759    2.6115    1.7768 H   0  0  0  0  0  0  0  0  0  0  0  0
  1 11  1  0  0  0  0
  1 17  1  0  0  0  0
  2  3  2  0  0  0  0
  2  4  2  0  0  0  0
  2 25  1  0  0  0  0
  2 30  1  0  0  0  0
  5 14  1  0  0  0  0
  5 22  1  0  0  0  0
  5 36  1  0  0  0  0
  6 19  2  0  0  0  0
  6 23  1  0  0  0  0
  7 19  1  0  0  0  0
  7 45  1  0  0  0  0
  7 46  1  0  0  0  0
  8  9  1  0  0  0  0
  8 10  1  0  0  0  0
  8 17  2  0  0  0  0
  9 11  2  0  0  0  0
  9 19  1  0  0  0  0
 10 15  2  0  0  0  0
 10 18  1  0  0  0  0
 11 13  1  0  0  0  0
 12 14  2  0  0  0  0
 12 15  1  0  0  0  0
 12 21  1  0  0  0  0
 13 16  1  0  0  0  0
 13 23  2  0  0  0  0
 14 20  1  0  0  0  0
 15 31  1  0  0  0  0
 16 24  2  0  0  0  0
 16 26  1  0  0  0  0
 17 32  1  0  0  0  0
 18 20  2  0  0  0  0
 18 33  1  0  0  0  0
 20 34  1  0  0  0  0
 21 22  2  0  0  0  0
 21 35  1  0  0  0  0
 22 28  1  0  0  0  0
 23 37  1  0  0  0  0
 24 25  1  0  0  0  0
 24 38  1  0  0  0  0
 25 27  2  0  0  0  0
 26 29  2  0  0  0  0
 26 39  1  0  0  0  0
 27 29  1  0  0  0  0
 27 40  1  0  0  0  0
 28 41  1  0  0  0  0
 28 42  1  0  0  0  0
 28 43  1  0  0  0  0
 29 44  1  0  0  0  0
 30 47  1  0  0  0  0
 30 48  1  0  0  0  0
 30 49  1  0  0  0  0
M  END
> <PUBCHEM_COMPOUND_CID>
18450667

> <PUBCHEM_CONFORMER_RMSD>
0.8

> <PUBCHEM_CONFORMER_DIVERSEORDER>
2
11
18
9
20
3
16
13
17
19
12
10
5
8
15
14
1
4
6
7

> <PUBCHEM_MMFF94_PARTIAL_CHARGES>
39
1 -0.08
10 0.05
11 0.04
14 -0.15
15 -0.15
17 -0.11
18 -0.15
19 0.41
2 1.2
20 -0.15
21 -0.15
22 -0.33
23 0.16
24 -0.15
25 -0.01
26 -0.15
27 -0.15
28 0.18
29 -0.15
3 -0.65
30 0.11
31 0.15
32 0.15
33 0.15
34 0.15
35 0.15
36 0.27
37 0.15
38 0.15
39 0.15
4 -0.65
40 0.15
44 0.15
45 0.4
46 0.4
5 0.03
6 -0.62
7 -0.9
8 -0.05

> <PUBCHEM_EFFECTIVE_ROTOR_COUNT>
3

> <PUBCHEM_PHARMACOPHORE_FEATURES>
11
1 3 acceptor
1 4 acceptor
1 5 cation
1 5 donor
1 7 donor
3 6 7 19 cation
5 1 8 9 11 17 rings
5 5 12 14 21 22 rings
6 10 12 14 15 18 20 rings
6 16 24 25 26 27 29 rings
6 6 9 11 13 19 23 rings

> <PUBCHEM_HEAVY_ATOM_COUNT>
30

> <PUBCHEM_ATOM_DEF_STEREO_COUNT>
0

> <PUBCHEM_ATOM_UDEF_STEREO_COUNT>
0

> <PUBCHEM_BOND_DEF_STEREO_COUNT>
0

> <PUBCHEM_BOND_UDEF_STEREO_COUNT>
0

> <PUBCHEM_ISOTOPIC_ATOM_COUNT>
0

> <PUBCHEM_COMPONENT_COUNT>
1

> <PUBCHEM_CACTVS_TAUTO_COUNT>
2

> <PUBCHEM_CONFORMER_ID>
011988EB00000002

> <PUBCHEM_MMFF94_ENERGY>
77.9476

> <PUBCHEM_FEATURE_SELFOVERLAP>
55.996

> <PUBCHEM_SHAPE_FINGERPRINT>
10 15 18410577301304352391
10299344 5 10375868589113494009
10554248 39 18200869582820943174
10670039 82 17345771711268142768
10673678 19 18341898532337020692
10835480 77 18334576832672672769
10906281 52 17845388690837969667
11607047 141 17387685003849618235
11719270 70 18059851714616309383
11991303 11 17775000223574897271
12236239 1 18341612642413530498
125118 31 18187365406673153116
12522641 126 16988292954379733790
13533116 47 17168140079988083778
13617811 41 17418375783622159504
13668630 136 14476951290949456437
13673619 4 10447929460142988107
13911987 19 17775569736738764969
14347424 109 18041273280174981258
14767858 380 17060340716709752409
14840074 17 17274824640679214685
15131766 46 18190742140854266980
15183329 4 18060140937835179305
15840311 113 17676488307190289063
17492 54 17418375779248018287
18335252 114 18202567272536278396
20105231 36 14620792726531429333
20157964 124 18334859385939349754
20505436 4 18339357565914695766
20511986 3 17676199165844927715
20771845 171 18201721700111601926
21033648 29 17240206555664841336
21130935 74 17385725785582286971
21344244 181 13758353379813603780
21814621 53 17676776383436568193
22122407 14 18188786032011005592
23569914 2 17465329370866812700
23569943 247 14044644148786799844
23576562 1 17916576691400974645
24771293 8 15936697063920621990
3103668 31 16843302739674012767
312425 54 17022621987604176970
34797466 226 18336550425837477611
394071 54 14635162260910926254
397830 11 17895486911206809611
4073 2 17530692034259856554
4258327 124 18201719591661850527
4340502 62 18260549978844781843
44880568 143 18197782107717110213
4516262 110 18341895230250871100
5080951 261 16010146707998274274
5104073 3 14202266944853350181
54039377 194 8646497323710771872
5486654 2 17346880044057098271
6058803 2 14131633265681700147

> <PUBCHEM_SHAPE_MULTIPOLES>
598.4
21.18
2.37
1.61
10.14
1.05
0.2
15.19
1.22
-2.67
0.55
-0.33
-0.48
0.16

> <PUBCHEM_SHAPE_SELFOVERLAP>
1324.978

> <PUBCHEM_SHAPE_VOLUME>
325

> <PUBCHEM_COORDINATE_TYPE>
2
5
10

$$$$
