11292807
  -OEChem-10052120443D

 46 49  0     0  0  0  0  0  0999 V2000
   -8.4560   -1.3857   -1.2793 F   0  0  0  0  0  0  0  0  0  0  0  0
   -9.4893   -0.0331    0.0648 F   0  0  0  0  0  0  0  0  0  0  0  0
   -8.4084   -1.7417    0.8654 F   0  0  0  0  0  0  0  0  0  0  0  0
   -1.9839    1.4431    0.2143 O   0  0  0  0  0  0  0  0  0  0  0  0
    7.6929   -1.5616    0.6513 N   0  0  0  0  0  0  0  0  0  0  0  0
    8.8897   -0.9690    0.5056 N   0  0  0  0  0  0  0  0  0  0  0  0
   -1.1551   -0.7147   -0.1650 N   0  0  0  0  0  0  0  0  0  0  0  0
   -3.4361   -0.3685   -0.0750 N   0  0  0  0  0  0  0  0  0  0  0  0
    9.4702    1.2246   -0.2578 N   0  0  0  0  0  0  0  0  0  0  0  0
    4.4269    0.0325   -0.1162 C   0  0  0  0  0  0  0  0  0  0  0  0
    6.6299   -0.7726    0.3033 C   0  0  0  0  0  0  0  0  0  0  0  0
    7.1876    0.4347   -0.1025 C   0  0  0  0  0  0  0  0  0  0  0  0
    2.9917   -0.1596   -0.1286 C   0  0  0  0  0  0  0  0  0  0  0  0
    5.2540   -1.0117    0.3105 C   0  0  0  0  0  0  0  0  0  0  0  0
    4.9604    1.2549   -0.5288 C   0  0  0  0  0  0  0  0  0  0  0  0
    6.3437    1.4740   -0.5283 C   0  0  0  0  0  0  0  0  0  0  0  0
    8.5783    0.2453    0.0467 C   0  0  0  0  0  0  0  0  0  0  0  0
    2.1419    0.9275    0.0721 C   0  0  0  0  0  0  0  0  0  0  0  0
    2.4611   -1.4313   -0.3412 C   0  0  0  0  0  0  0  0  0  0  0  0
    0.2277   -0.5293   -0.1519 C   0  0  0  0  0  0  0  0  0  0  0  0
    0.7594    0.7426    0.0606 C   0  0  0  0  0  0  0  0  0  0  0  0
    1.0786   -1.6163   -0.3530 C   0  0  0  0  0  0  0  0  0  0  0  0
   -4.6931    0.2358    0.0454 C   0  0  0  0  0  0  0  0  0  0  0  0
   -7.0992    0.0678    0.0499 C   0  0  0  0  0  0  0  0  0  0  0  0
   -5.8470   -0.5349   -0.0704 C   0  0  0  0  0  0  0  0  0  0  0  0
   -2.1784    0.2485    0.0136 C   0  0  0  0  0  0  0  0  0  0  0  0
   -4.7827    1.6053    0.2810 C   0  0  0  0  0  0  0  0  0  0  0  0
   -7.1930    1.4394    0.2858 C   0  0  0  0  0  0  0  0  0  0  0  0
   -6.0347    2.2080    0.4016 C   0  0  0  0  0  0  0  0  0  0  0  0
   -8.3373   -0.7540   -0.0741 C   0  0  0  0  0  0  0  0  0  0  0  0
    4.8814   -1.9654    0.6675 H   0  0  0  0  0  0  0  0  0  0  0  0
    4.3377    2.0673   -0.8957 H   0  0  0  0  0  0  0  0  0  0  0  0
    6.7439    2.4275   -0.8592 H   0  0  0  0  0  0  0  0  0  0  0  0
    2.5102    1.9295    0.2746 H   0  0  0  0  0  0  0  0  0  0  0  0
    3.0824   -2.3016   -0.5338 H   0  0  0  0  0  0  0  0  0  0  0  0
    7.6698   -2.5134    0.9954 H   0  0  0  0  0  0  0  0  0  0  0  0
    0.1688    1.6312    0.2319 H   0  0  0  0  0  0  0  0  0  0  0  0
    0.6774   -2.6116   -0.5269 H   0  0  0  0  0  0  0  0  0  0  0  0
   -1.4661   -1.6696   -0.3252 H   0  0  0  0  0  0  0  0  0  0  0  0
   -5.7775   -1.6046   -0.2544 H   0  0  0  0  0  0  0  0  0  0  0  0
   -3.4416   -1.3708   -0.2460 H   0  0  0  0  0  0  0  0  0  0  0  0
    9.1937    2.1378   -0.6053 H   0  0  0  0  0  0  0  0  0  0  0  0
   10.4706    1.0889   -0.1508 H   0  0  0  0  0  0  0  0  0  0  0  0
   -3.9409    2.2737    0.3839 H   0  0  0  0  0  0  0  0  0  0  0  0
   -8.1590    1.9272    0.3825 H   0  0  0  0  0  0  0  0  0  0  0  0
   -6.1093    3.2760    0.5854 H   0  0  0  0  0  0  0  0  0  0  0  0
  1 30  1  0  0  0  0
  2 30  1  0  0  0  0
  3 30  1  0  0  0  0
  4 26  2  0  0  0  0
  5  6  1  0  0  0  0
  5 11  1  0  0  0  0
  5 36  1  0  0  0  0
  6 17  2  0  0  0  0
  7 20  1  0  0  0  0
  7 26  1  0  0  0  0
  7 39  1  0  0  0  0
  8 23  1  0  0  0  0
  8 26  1  0  0  0  0
  8 41  1  0  0  0  0
  9 17  1  0  0  0  0
  9 42  1  0  0  0  0
  9 43  1  0  0  0  0
 10 13  1  0  0  0  0
 10 14  2  0  0  0  0
 10 15  1  0  0  0  0
 11 12  2  0  0  0  0
 11 14  1  0  0  0  0
 12 16  1  0  0  0  0
 12 17  1  0  0  0  0
 13 18  2  0  0  0  0
 13 19  1  0  0  0  0
 14 31  1  0  0  0  0
 15 16  2  0  0  0  0
 15 32  1  0  0  0  0
 16 33  1  0  0  0  0
 18 21  1  0  0  0  0
 18 34  1  0  0  0  0
 19 22  2  0  0  0  0
 19 35  1  0  0  0  0
 20 21  2  0  0  0  0
 20 22  1  0  0  0  0
 21 37  1  0  0  0  0
 22 38  1  0  0  0  0
 23 25  1  0  0  0  0
 23 27  2  0  0  0  0
 24 25  2  0  0  0  0
 24 28  1  0  0  0  0
 24 30  1  0  0  0  0
 25 40  1  0  0  0  0
 27 29  1  0  0  0  0
 27 44  1  0  0  0  0
 28 29  2  0  0  0  0
 28 45  1  0  0  0  0
 29 46  1  0  0  0  0
M  END
> <PUBCHEM_COMPOUND_CID>
11292807

> <PUBCHEM_CONFORMER_RMSD>
0.8

> <PUBCHEM_CONFORMER_DIVERSEORDER>
1
18
25
13
23
16
4
24
7
27
19
14
9
22
6
26
20
12
17
3
21
11
28
2
15
10
5
8

> <PUBCHEM_MMFF94_PARTIAL_CHARGES>
43
1 -0.34
11 -0.15
14 -0.15
15 -0.15
16 -0.15
17 0.37
18 -0.15
19 -0.15
2 -0.34
20 0.12
21 -0.15
22 -0.15
23 0.12
24 -0.14
25 -0.15
26 0.69
27 -0.15
28 -0.15
29 -0.15
3 -0.34
30 1.16
31 0.15
32 0.15
33 0.15
34 0.15
35 0.15
36 0.27
37 0.15
38 0.15
39 0.37
4 -0.57
40 0.15
41 0.37
42 0.4
43 0.4
44 0.15
45 0.15
46 0.15
5 0.3
6 -0.71
7 -0.55
8 -0.55
9 -0.88

> <PUBCHEM_EFFECTIVE_ROTOR_COUNT>
6

> <PUBCHEM_PHARMACOPHORE_FEATURES>
10
1 4 acceptor
1 5 donor
1 7 donor
1 8 donor
1 9 donor
3 6 9 17 cation
5 5 6 11 12 17 rings
6 10 11 12 14 15 16 rings
6 13 18 19 20 21 22 rings
6 23 24 25 27 28 29 rings

> <PUBCHEM_HEAVY_ATOM_COUNT>
30

> <PUBCHEM_ATOM_DEF_STEREO_COUNT>
0

> <PUBCHEM_ATOM_UDEF_STEREO_COUNT>
0

> <PUBCHEM_BOND_DEF_STEREO_COUNT>
0

> <PUBCHEM_BOND_UDEF_STEREO_COUNT>
0

> <PUBCHEM_ISOTOPIC_ATOM_COUNT>
0

> <PUBCHEM_COMPONENT_COUNT>
1

> <PUBCHEM_CACTVS_TAUTO_COUNT>
21

> <PUBCHEM_CONFORMER_ID>
00AC508700000001

> <PUBCHEM_MMFF94_ENERGY>
85.4292

> <PUBCHEM_FEATURE_SELFOVERLAP>
50.887

> <PUBCHEM_SHAPE_FINGERPRINT>
10 15 18411138039043583186
100830 39 18408604756311962737
10162869 55 18040715892072092388
10299344 5 18410573985156732397
10319688 140 14332584245632843924
11135926 11 18342728603302093759
11315181 36 18410012127375438993
11719270 70 18201719523016863214
12082328 90 18341894057149715109
12089408 11 18409167693006033352
12664476 115 18059853957469894337
14118638 360 16056608599286120227
14150022 121 18130792201305300161
14202775 3 18410579478526600794
14251764 18 18335421265881385796
14251764 46 18334857220716656655
14400156 96 17822577243751893756
15131766 46 15938968745169596046
15198563 99 15068897504329910150
15301273 46 14345792734519475962
15328684 2 18265889155711256576
15461852 350 18060700606638859783
15510794 2 17775290434662371198
15840311 113 18187368753544440604
16120349 18 18113338644141277884
16989713 51 17346021382280929159
17686467 74 18334294292887418729
18335252 98 18131073718940805423
18608769 82 18342737425370114481
19611394 137 18116727390411871595
21095123 145 17346596396369956397
21315763 28 18408886230645419989
21362267 20 18114463444099676627
21362267 313 18264202509791258632
22224240 67 17821447958571557322
232437 2 18411419497510402610
23569917 315 18200602393565536798
24771293 8 18335990783304591917
249057 3 15430043174829218683
3092352 35 18408039611667676730
335352 9 18409732881069841852
335507 130 18060419131894147541
33684 2 18410292510174746987
395649 100 18334575793929553003
4073 2 18040723605575361226
4325135 7 18412544314636814703
5381727 24 18413669102669873526
5758199 1 18333732403579578698
59682541 35 18343017809076920754
67123 10 18410575088958046208
9663363 56 15626503883549483449
99344 41 18410293584170226887

> <PUBCHEM_SHAPE_MULTIPOLES>
564.79
34.46
1.73
0.72
11.36
0.21
0.03
-1.45
-1.54
0.89
-0.04
0.15
-0.08
-1.24

> <PUBCHEM_SHAPE_SELFOVERLAP>
1259.938

> <PUBCHEM_SHAPE_VOLUME>
301.3

> <PUBCHEM_COORDINATE_TYPE>
2
5
10

$$$$
