49830311
  -OEChem-10052120443D

 26 28  0     0  0  0  0  0  0999 V2000
   -3.5349   -2.5947   -1.0490 Cl  0  0  0  0  0  0  0  0  0  0  0  0
    2.2639    1.6993   -1.0098 N   0  0  0  0  0  0  0  0  0  0  0  0
    4.0140    0.2916   -0.1384 N   0  0  0  0  0  0  0  0  0  0  0  0
   -3.6430   -0.3114    0.1737 N   0  0  0  0  0  0  0  0  0  0  0  0
   -3.9344    1.7544    1.3243 N   0  0  0  0  0  0  0  0  0  0  0  0
    0.4594    0.5841   -0.3386 C   0  0  0  0  0  0  0  0  0  0  0  0
    1.6091   -0.1240    0.1011 C   0  0  0  0  0  0  0  0  0  0  0  0
    2.7172    0.5974   -0.3334 C   0  0  0  0  0  0  0  0  0  0  0  0
   -0.9322    0.2809   -0.1656 C   0  0  0  0  0  0  0  0  0  0  0  0
    0.8932    1.7015   -1.0187 C   0  0  0  0  0  0  0  0  0  0  0  0
    1.8490   -1.3037    0.8243 C   0  0  0  0  0  0  0  0  0  0  0  0
   -1.7637    1.1738    0.5013 C   0  0  0  0  0  0  0  0  0  0  0  0
   -1.4545   -0.9079   -0.6631 C   0  0  0  0  0  0  0  0  0  0  0  0
    3.1745   -1.6675    1.0549 C   0  0  0  0  0  0  0  0  0  0  0  0
   -3.0993    0.8339    0.6433 C   0  0  0  0  0  0  0  0  0  0  0  0
    4.1857   -0.8532    0.5628 C   0  0  0  0  0  0  0  0  0  0  0  0
   -2.8040   -1.1547   -0.4691 C   0  0  0  0  0  0  0  0  0  0  0  0
    0.3561    2.5002   -1.5128 H   0  0  0  0  0  0  0  0  0  0  0  0
    2.8511    2.4023   -1.4366 H   0  0  0  0  0  0  0  0  0  0  0  0
    1.0363   -1.9187    1.1971 H   0  0  0  0  0  0  0  0  0  0  0  0
   -1.3811    2.1080    0.9034 H   0  0  0  0  0  0  0  0  0  0  0  0
   -0.8295   -1.6224   -1.1911 H   0  0  0  0  0  0  0  0  0  0  0  0
    3.4103   -2.5699    1.6087 H   0  0  0  0  0  0  0  0  0  0  0  0
    5.2249   -1.1218    0.7335 H   0  0  0  0  0  0  0  0  0  0  0  0
   -3.5178    2.3566    2.0237 H   0  0  0  0  0  0  0  0  0  0  0  0
   -4.9083    1.4988    1.4306 H   0  0  0  0  0  0  0  0  0  0  0  0
  1 17  1  0  0  0  0
  2  8  1  0  0  0  0
  2 10  1  0  0  0  0
  2 19  1  0  0  0  0
  3  8  1  0  0  0  0
  3 16  2  0  0  0  0
  4 15  2  0  0  0  0
  4 17  1  0  0  0  0
  5 15  1  0  0  0  0
  5 25  1  0  0  0  0
  5 26  1  0  0  0  0
  6  7  1  0  0  0  0
  6  9  1  0  0  0  0
  6 10  2  0  0  0  0
  7  8  2  0  0  0  0
  7 11  1  0  0  0  0
  9 12  2  0  0  0  0
  9 13  1  0  0  0  0
 10 18  1  0  0  0  0
 11 14  2  0  0  0  0
 11 20  1  0  0  0  0
 12 15  1  0  0  0  0
 12 21  1  0  0  0  0
 13 17  2  0  0  0  0
 13 22  1  0  0  0  0
 14 16  1  0  0  0  0
 14 23  1  0  0  0  0
 16 24  1  0  0  0  0
M  END
> <PUBCHEM_COMPOUND_CID>
49830311

> <PUBCHEM_CONFORMER_RMSD>
0.6

> <PUBCHEM_CONFORMER_DIVERSEORDER>
1
6
3
5
2
4

> <PUBCHEM_MMFF94_PARTIAL_CHARGES>
25
1 -0.18
10 -0.3
11 -0.15
12 -0.15
13 -0.15
14 -0.15
15 0.41
16 0.16
17 0.49
18 0.15
19 0.27
2 0.03
20 0.15
21 0.15
22 0.15
23 0.15
24 0.15
25 0.4
26 0.4
3 -0.57
4 -0.62
5 -0.9
6 -0.05
8 0.11
9 0.05

> <PUBCHEM_EFFECTIVE_ROTOR_COUNT>
1

> <PUBCHEM_PHARMACOPHORE_FEATURES>
8
1 2 cation
1 2 donor
1 3 acceptor
1 5 donor
3 4 5 15 cation
5 2 6 7 8 10 rings
6 3 7 8 11 14 16 rings
6 4 9 12 13 15 17 rings

> <PUBCHEM_HEAVY_ATOM_COUNT>
17

> <PUBCHEM_ATOM_DEF_STEREO_COUNT>
0

> <PUBCHEM_ATOM_UDEF_STEREO_COUNT>
0

> <PUBCHEM_BOND_DEF_STEREO_COUNT>
0

> <PUBCHEM_BOND_UDEF_STEREO_COUNT>
0

> <PUBCHEM_ISOTOPIC_ATOM_COUNT>
0

> <PUBCHEM_COMPONENT_COUNT>
1

> <PUBCHEM_CACTVS_TAUTO_COUNT>
13

> <PUBCHEM_CONFORMER_ID>
02F859A700000001

> <PUBCHEM_MMFF94_ENERGY>
45.7115

> <PUBCHEM_FEATURE_SELFOVERLAP>
40.709

> <PUBCHEM_SHAPE_FINGERPRINT>
10062212 137 18410854365312622923
10616163 171 18342176704088683743
11578080 2 18122593228384357757
11769659 78 18409721898042004175
11806522 49 18336538438884220350
12236239 1 18410576192780478537
12251169 10 18338800017911235625
12346177 29 18059846256165725527
12500047 106 17988639645319996449
12553582 1 17896313628298217730
13538477 17 18343021094790322281
13583140 156 16343407449900640222
13705890 14 14562813214539520002
13760787 19 18411426111037215588
13760787 5 17676210169614001678
14144814 61 18408603651729816728
14178342 30 18271238335467384054
14576447 43 18262793102987734502
15099037 8 18337949103649581271
15375462 189 18186801336123014864
15669948 3 18202286948177818807
15842332 3 18337122266547281597
16752209 62 18059849602066984151
16945 1 18269552732681166564
1813 80 17750809752915398566
18186145 218 14418135101784239436
19422 9 18410575119054654326
19433438 48 18336254661493971850
200 152 18336818801469845207
20279233 1 15913611657411519693
20281475 54 18409441471417277686
20361792 2 17749384836899812526
20645477 70 17458337584866836926
21267235 1 18336273395999034810
21634736 98 18120088635522234014
22112679 90 18412829100769858693
22445834 79 18407760335064822955
2255824 54 18114751546215003460
22646028 28 18409725196629881823
232386 152 18202280333458755885
23402539 116 17749100046725405026
23463225 33 18335702719546803358
23557571 272 17132123441757588465
23559900 14 17488756583915227116
23598291 2 18336553810171292100
2748010 2 17400925198106176453
312423 11 18336275646857089367
474 4 17971477540269205404
5104073 3 18410574002558252528
573450 72 18343861117378904491
603831 33 18125158483521358135
6992083 37 18408889499368590597
7097593 13 18338796697896377586
7615 1 18410855507684343941
77492 1 18410296929770051637
83771 10 18040714723682777516
84936 182 18123758814010515976
9981440 41 17471572604121211440

> <PUBCHEM_SHAPE_MULTIPOLES>
331.8
7.87
2.15
1.1
0.17
0.56
-0.05
1.99
-1.27
-1.29
0.23
-0.24
-0.08
-2.26

> <PUBCHEM_SHAPE_SELFOVERLAP>
735.042

> <PUBCHEM_SHAPE_VOLUME>
179.4

> <PUBCHEM_COORDINATE_TYPE>
2
5
10

$$$$
