49831001
  -OEChem-10052115183D

 42 45  0     0  0  0  0  0  0999 V2000
    1.7703   -1.9925    0.0942 O   0  0  0  0  0  0  0  0  0  0  0  0
    7.0029    2.0883   -0.0759 O   0  0  0  0  0  0  0  0  0  0  0  0
   -2.0516   -0.2329    0.0022 N   0  0  0  0  0  0  0  0  0  0  0  0
   -1.6448    1.0654   -0.0757 N   0  0  0  0  0  0  0  0  0  0  0  0
    2.5330    0.2218   -0.0529 N   0  0  0  0  0  0  0  0  0  0  0  0
   -1.1083   -2.4499    0.1063 N   0  0  0  0  0  0  0  0  0  0  0  0
   -0.9537   -1.0981    0.0377 C   0  0  0  0  0  0  0  0  0  0  0  0
   -3.3674   -0.7264    0.0348 C   0  0  0  0  0  0  0  0  0  0  0  0
    0.1709   -0.3065   -0.0102 C   0  0  0  0  0  0  0  0  0  0  0  0
   -4.5341    0.1740    0.0120 C   0  0  0  0  0  0  0  0  0  0  0  0
   -0.3147    1.0045   -0.0788 C   0  0  0  0  0  0  0  0  0  0  0  0
    1.5268   -0.7668    0.0069 C   0  0  0  0  0  0  0  0  0  0  0  0
    3.9414    0.0713   -0.0302 C   0  0  0  0  0  0  0  0  0  0  0  0
   -3.5646   -2.0537    0.1024 C   0  0  0  0  0  0  0  0  0  0  0  0
    4.7819    1.1839   -0.0670 C   0  0  0  0  0  0  0  0  0  0  0  0
   -2.3318   -2.8792    0.1347 C   0  0  0  0  0  0  0  0  0  0  0  0
   -5.4736    0.0723   -1.0140 C   0  0  0  0  0  0  0  0  0  0  0  0
   -4.6989    1.1277    1.0163 C   0  0  0  0  0  0  0  0  0  0  0  0
    4.4850   -1.2119    0.0310 C   0  0  0  0  0  0  0  0  0  0  0  0
    6.1660    1.0134   -0.0428 C   0  0  0  0  0  0  0  0  0  0  0  0
    4.2094    2.5648   -0.1321 C   0  0  0  0  0  0  0  0  0  0  0  0
    5.8692   -1.3824    0.0551 C   0  0  0  0  0  0  0  0  0  0  0  0
    6.7097   -0.2697    0.0181 C   0  0  0  0  0  0  0  0  0  0  0  0
   -6.5779    0.9244   -1.0357 C   0  0  0  0  0  0  0  0  0  0  0  0
   -5.8029    1.9798    0.9948 C   0  0  0  0  0  0  0  0  0  0  0  0
   -6.7424    1.8782   -0.0313 C   0  0  0  0  0  0  0  0  0  0  0  0
    0.2293    1.9365   -0.1328 H   0  0  0  0  0  0  0  0  0  0  0  0
   -4.5286   -2.5432    0.1426 H   0  0  0  0  0  0  0  0  0  0  0  0
    2.2141    1.1834   -0.1102 H   0  0  0  0  0  0  0  0  0  0  0  0
   -2.5060   -3.9664    0.1898 H   0  0  0  0  0  0  0  0  0  0  0  0
   -5.3606   -0.6601   -1.8098 H   0  0  0  0  0  0  0  0  0  0  0  0
   -3.9819    1.2174    1.8289 H   0  0  0  0  0  0  0  0  0  0  0  0
    3.9076   -2.1240    0.0565 H   0  0  0  0  0  0  0  0  0  0  0  0
    3.5822    2.7595    0.7447 H   0  0  0  0  0  0  0  0  0  0  0  0
    4.9740    3.3474   -0.1511 H   0  0  0  0  0  0  0  0  0  0  0  0
    3.6114    2.6871   -1.0418 H   0  0  0  0  0  0  0  0  0  0  0  0
    6.2940   -2.3810    0.1013 H   0  0  0  0  0  0  0  0  0  0  0  0
    7.7862   -0.4175    0.0376 H   0  0  0  0  0  0  0  0  0  0  0  0
   -7.3088    0.8463   -1.8352 H   0  0  0  0  0  0  0  0  0  0  0  0
   -5.9322    2.7214    1.7777 H   0  0  0  0  0  0  0  0  0  0  0  0
   -7.6022    2.5416   -0.0480 H   0  0  0  0  0  0  0  0  0  0  0  0
    7.9234    1.7752   -0.0512 H   0  0  0  0  0  0  0  0  0  0  0  0
  1 12  2  0  0  0  0
  2 20  1  0  0  0  0
  2 42  1  0  0  0  0
  3  4  1  0  0  0  0
  3  7  1  0  0  0  0
  3  8  1  0  0  0  0
  4 11  2  0  0  0  0
  5 12  1  0  0  0  0
  5 13  1  0  0  0  0
  5 29  1  0  0  0  0
  6  7  1  0  0  0  0
  6 16  2  0  0  0  0
  7  9  2  0  0  0  0
  8 10  1  0  0  0  0
  8 14  2  0  0  0  0
  9 11  1  0  0  0  0
  9 12  1  0  0  0  0
 10 17  2  0  0  0  0
 10 18  1  0  0  0  0
 11 27  1  0  0  0  0
 13 15  2  0  0  0  0
 13 19  1  0  0  0  0
 14 16  1  0  0  0  0
 14 28  1  0  0  0  0
 15 20  1  0  0  0  0
 15 21  1  0  0  0  0
 16 30  1  0  0  0  0
 17 24  1  0  0  0  0
 17 31  1  0  0  0  0
 18 25  2  0  0  0  0
 18 32  1  0  0  0  0
 19 22  2  0  0  0  0
 19 33  1  0  0  0  0
 20 23  2  0  0  0  0
 21 34  1  0  0  0  0
 21 35  1  0  0  0  0
 21 36  1  0  0  0  0
 22 23  1  0  0  0  0
 22 37  1  0  0  0  0
 23 38  1  0  0  0  0
 24 26  2  0  0  0  0
 24 39  1  0  0  0  0
 25 26  1  0  0  0  0
 25 40  1  0  0  0  0
 26 41  1  0  0  0  0
M  END
> <PUBCHEM_COMPOUND_CID>
49831001

> <PUBCHEM_CONFORMER_RMSD>
0.8

> <PUBCHEM_CONFORMER_DIVERSEORDER>
1
16
15
12
6
3
13
10
11
8
14
5
7
4
17
2
9

> <PUBCHEM_MMFF94_PARTIAL_CHARGES>
39
1 -0.57
10 0.03
11 0.14
12 0.72
13 0.12
14 -0.14
15 -0.14
16 0.38
17 -0.15
18 -0.15
19 -0.15
2 -0.53
20 0.08
21 0.14
22 -0.15
23 -0.15
24 -0.15
25 -0.15
26 -0.15
27 0.15
28 0.15
29 0.37
3 0.6
30 0.06
31 0.15
32 0.15
33 0.15
37 0.15
38 0.15
39 0.15
4 -0.71
40 0.15
41 0.15
42 0.45
5 -0.55
6 -0.58
7 -0.03
8 -0.06
9 -0.09

> <PUBCHEM_EFFECTIVE_ROTOR_COUNT>
4

> <PUBCHEM_PHARMACOPHORE_FEATURES>
9
1 1 acceptor
1 2 donor
1 4 acceptor
1 5 donor
1 6 acceptor
5 3 4 7 9 11 rings
6 10 17 18 24 25 26 rings
6 13 15 19 20 22 23 rings
6 3 6 7 8 14 16 rings

> <PUBCHEM_HEAVY_ATOM_COUNT>
26

> <PUBCHEM_ATOM_DEF_STEREO_COUNT>
0

> <PUBCHEM_ATOM_UDEF_STEREO_COUNT>
0

> <PUBCHEM_BOND_DEF_STEREO_COUNT>
0

> <PUBCHEM_BOND_UDEF_STEREO_COUNT>
0

> <PUBCHEM_ISOTOPIC_ATOM_COUNT>
0

> <PUBCHEM_COMPONENT_COUNT>
1

> <PUBCHEM_CACTVS_TAUTO_COUNT>
13

> <PUBCHEM_CONFORMER_ID>
02F85C5900000001

> <PUBCHEM_MMFF94_ENERGY>
79.5073

> <PUBCHEM_FEATURE_SELFOVERLAP>
45.801

> <PUBCHEM_SHAPE_FINGERPRINT>
10 15 18114469998476861577
10411042 1 17834958955872315135
10835480 77 18340763845053749456
10906281 52 18201733824967217103
11089746 13 18131628980565065793
11315181 36 17632578275026221403
12236239 1 18342737412031538574
12422481 6 17385445427502359773
12616971 3 16588309427366285262
12788726 201 17702949119574866569
13167372 99 18341614776606114376
13533116 47 18059010580263797378
13782708 43 11025795409844849184
14790565 3 18339082571515581329
15183329 4 18342457028071596672
15196674 1 18337954592607326906
15348495 7 16878237453376048441
15400415 2 18409166649556158434
18608769 82 18339365266801470691
20281389 69 18187364311783170109
20715895 44 18411983550879873030
21033648 29 17988348378297944848
21150785 3 16487251080237430101
21236236 1 18411699924404537703
21279426 13 18412831282792606078
21859007 373 17677604259689202421
23559900 14 18341888640810937016
23576562 1 17201909539246663180
249057 3 18409450267842576886
2838139 119 18411416185900726437
300161 21 18410008858145664834
3004659 81 18409166606869729498
335352 9 18410293597255283846
34934 24 18335416863883221019
350125 39 18408885131629521524
397830 11 16371871684235425353
4073 2 18114467863772984274
4144715 1 18117005579195365866
4340502 62 16443350832056446251
44880568 143 14836121035884826737
5104073 3 18260828237022395810
57724786 102 16443919404443870228
59755656 215 18339083688233673214
59755656 520 18409724054727828527
6328613 192 18411982468158042793
636775 72 18272366499228674504
7226269 152 18272935994890881617

> <PUBCHEM_SHAPE_MULTIPOLES>
503.41
19.8
2.62
0.77
7.67
0.53
0.01
-10.72
0.99
-0.31
-0.21
-0.96
-0.16
-0.48

> <PUBCHEM_SHAPE_SELFOVERLAP>
1119.118

> <PUBCHEM_SHAPE_VOLUME>
268.1

> <PUBCHEM_COORDINATE_TYPE>
2
5
10

$$$$
