11075446
  -OEChem-10062122043D

 21 23  0     0  0  0  0  0  0999 V2000
    2.3727   -2.9241    0.0003 Cl  0  0  0  0  0  0  0  0  0  0  0  0
    3.8549    2.2666    0.0001 Cl  0  0  0  0  0  0  0  0  0  0  0  0
   -0.5458   -1.5754   -0.0008 N   0  0  0  0  0  0  0  0  0  0  0  0
   -3.9045   -0.0507    0.0006 N   0  0  0  0  0  0  0  0  0  0  0  0
    0.2491    0.5088   -0.0003 C   0  0  0  0  0  0  0  0  0  0  0  0
   -1.1808    0.5630   -0.0002 C   0  0  0  0  0  0  0  0  0  0  0  0
    0.6150   -0.8379   -0.0002 C   0  0  0  0  0  0  0  0  0  0  0  0
   -1.6452   -0.7519   -0.0002 C   0  0  0  0  0  0  0  0  0  0  0  0
    1.2681    1.4846   -0.0002 C   0  0  0  0  0  0  0  0  0  0  0  0
    1.9496   -1.2596    0.0002 C   0  0  0  0  0  0  0  0  0  0  0  0
   -2.1224    1.6040    0.0000 C   0  0  0  0  0  0  0  0  0  0  0  0
   -3.0002   -1.0570    0.0002 C   0  0  0  0  0  0  0  0  0  0  0  0
    2.6071    1.0781    0.0000 C   0  0  0  0  0  0  0  0  0  0  0  0
    2.9405   -0.2744    0.0005 C   0  0  0  0  0  0  0  0  0  0  0  0
   -3.4582    1.2258    0.0002 C   0  0  0  0  0  0  0  0  0  0  0  0
   -0.5838   -2.5854   -0.0011 H   0  0  0  0  0  0  0  0  0  0  0  0
    1.0083    2.5401   -0.0003 H   0  0  0  0  0  0  0  0  0  0  0  0
   -1.8317    2.6482    0.0000 H   0  0  0  0  0  0  0  0  0  0  0  0
   -3.3842   -2.0686    0.0003 H   0  0  0  0  0  0  0  0  0  0  0  0
    3.9884   -0.5705    0.0007 H   0  0  0  0  0  0  0  0  0  0  0  0
   -4.2392    1.9803    0.0004 H   0  0  0  0  0  0  0  0  0  0  0  0
  1 10  1  0  0  0  0
  2 13  1  0  0  0  0
  3  7  1  0  0  0  0
  3  8  1  0  0  0  0
  3 16  1  0  0  0  0
  4 12  2  0  0  0  0
  4 15  1  0  0  0  0
  5  6  1  0  0  0  0
  5  7  2  0  0  0  0
  5  9  1  0  0  0  0
  6  8  2  0  0  0  0
  6 11  1  0  0  0  0
  7 10  1  0  0  0  0
  8 12  1  0  0  0  0
  9 13  2  0  0  0  0
  9 17  1  0  0  0  0
 10 14  2  0  0  0  0
 11 15  2  0  0  0  0
 11 18  1  0  0  0  0
 12 19  1  0  0  0  0
 13 14  1  0  0  0  0
 14 20  1  0  0  0  0
 15 21  1  0  0  0  0
M  END
> <PUBCHEM_COMPOUND_CID>
11075446

> <PUBCHEM_CONFORMER_RMSD>
0.4

> <PUBCHEM_CONFORMER_DIVERSEORDER>
1

> <PUBCHEM_MMFF94_PARTIAL_CHARGES>
19
1 -0.18
10 0.18
11 -0.15
12 0.16
13 0.18
14 -0.15
15 0.16
16 0.27
17 0.15
18 0.15
19 0.15
2 -0.18
20 0.15
21 0.15
3 0.03
4 -0.62
7 -0.15
8 -0.15
9 -0.15

> <PUBCHEM_EFFECTIVE_ROTOR_COUNT>
0

> <PUBCHEM_PHARMACOPHORE_FEATURES>
6
1 3 cation
1 3 donor
1 4 acceptor
5 3 5 6 7 8 rings
6 4 6 8 11 12 15 rings
6 5 7 9 10 13 14 rings

> <PUBCHEM_HEAVY_ATOM_COUNT>
15

> <PUBCHEM_ATOM_DEF_STEREO_COUNT>
0

> <PUBCHEM_ATOM_UDEF_STEREO_COUNT>
0

> <PUBCHEM_BOND_DEF_STEREO_COUNT>
0

> <PUBCHEM_BOND_UDEF_STEREO_COUNT>
0

> <PUBCHEM_ISOTOPIC_ATOM_COUNT>
0

> <PUBCHEM_COMPONENT_COUNT>
1

> <PUBCHEM_CACTVS_TAUTO_COUNT>
2

> <PUBCHEM_CONFORMER_ID>
00A8FF7600000001

> <PUBCHEM_MMFF94_ENERGY>
30.0471

> <PUBCHEM_FEATURE_SELFOVERLAP>
30.632

> <PUBCHEM_SHAPE_FINGERPRINT>
10608611 8 18409164385665145437
10967382 1 18410856572529966213
10980938 120 18410855464686905768
11471102 20 18410851066387239116
12346645 44 18337952410700533088
13140716 1 18337677386738080801
13380535 21 18409739464431734515
13380535 76 18335700602249323682
14144814 61 18410293601281173553
14325111 11 18410575084858537057
14415576 193 18408606985030893356
14576447 43 17985529294851340567
14648413 74 18337675209110696130
14897335 6 18411415150344025172
15042514 8 17688309406067380298
15196674 1 18410855477466494405
15219456 202 18408886230755851977
15375462 6 18410012143426309829
15442244 35 18124034533371424952
15536298 74 18342458127809811222
15775835 57 18342742965366392309
16945 1 18338799030042312263
18186145 218 18270404884315538189
20510252 161 18126572442394831121
20559304 39 18411135797297352218
20645477 70 18341891857730983231
20671657 1 18411705348694635262
21267235 1 18411428288548951695
21501502 16 18412823564741376951
21524375 3 18270682112012607220
221490 88 18408895013774588058
2255824 54 18336829693517664930
22854114 111 18410294717920020296
2334 1 18410575067557088751
23366157 5 18113621149540659610
23402655 69 18342730811263105229
23463225 33 18338797793097096734
23559900 14 18268986497394404762
2748010 2 18337108969032828615
3071541 12 18411422765674299926
3091708 16 9331739327927588162
335352 9 17906453225602538109
43471831 8 18336541737350707394
5104073 3 18409168792496575953
53812653 166 18270959154256267928
57096353 35 18269270321580868901
6138700 20 18338524046016830550
7364860 26 18341049632093008318
74978 22 18267023864569420691
81539 233 18334292106532144094
84936 182 18201717366705767712
9709674 26 18410015429060999571

> <PUBCHEM_SHAPE_MULTIPOLES>
302.47
6.38
2.58
0.61
1.78
0.84
0
-1.99
0
-2.35
0
-0.04
-0.01
0

> <PUBCHEM_SHAPE_SELFOVERLAP>
664.779

> <PUBCHEM_SHAPE_VOLUME>
165.8

> <PUBCHEM_COORDINATE_TYPE>
2
5
10

$$$$
