49842666
  -OEChem-10052115143D

 46 47  0     1  0  0  0  0  0999 V2000
   -0.2421    1.9090   -0.1779 O   0  0  0  0  0  0  0  0  0  0  0  0
    4.3075   -2.2258   -0.6968 O   0  0  0  0  0  0  0  0  0  0  0  0
    3.1218    2.3215    0.0169 O   0  0  0  0  0  0  0  0  0  0  0  0
   -4.7668   -0.8074    0.2148 O   0  0  0  0  0  0  0  0  0  0  0  0
    0.6254    2.1970    1.9579 O   0  0  0  0  0  0  0  0  0  0  0  0
   -1.2228    2.9581   -0.0069 C   0  0  2  0  0  0  0  0  0  0  0  0
   -3.1097   -3.2427    0.1405 C   0  0  0  0  0  0  0  0  0  0  0  0
   -2.4023    2.6514   -0.9381 C   0  0  0  0  0  0  0  0  0  0  0  0
   -2.1406   -2.7554    1.2270 C   0  0  0  0  0  0  0  0  0  0  0  0
   -3.3186   -2.2745   -1.0243 C   0  0  0  0  0  0  0  0  0  0  0  0
    1.1377   -0.7721    0.4833 C   0  0  0  0  0  0  0  0  0  0  0  0
    1.5019    0.5893    0.4537 C   0  0  0  0  0  0  0  0  0  0  0  0
   -0.7809   -2.3832    0.7040 C   0  0  0  0  0  0  0  0  0  0  0  0
   -0.5760    4.2887   -0.3789 C   0  0  0  0  0  0  0  0  0  0  0  0
   -3.1558    1.4354   -0.4742 C   0  0  0  0  0  0  0  0  0  0  0  0
   -3.8265   -0.9213   -0.5676 C   0  0  0  0  0  0  0  0  0  0  0  0
   -0.1923   -1.2035    0.9631 C   0  0  0  0  0  0  0  0  0  0  0  0
    0.5817    1.6562    0.8674 C   0  0  0  0  0  0  0  0  0  0  0  0
   -3.1172    0.2635   -1.1202 C   0  0  0  0  0  0  0  0  0  0  0  0
    2.7762    1.0032    0.0448 C   0  0  0  0  0  0  0  0  0  0  0  0
    2.1144   -1.7052    0.0950 C   0  0  0  0  0  0  0  0  0  0  0  0
    3.3856   -1.2955   -0.3226 C   0  0  0  0  0  0  0  0  0  0  0  0
    3.7153    0.0561   -0.3490 C   0  0  0  0  0  0  0  0  0  0  0  0
    5.5839   -1.7429   -1.1120 C   0  0  0  0  0  0  0  0  0  0  0  0
   -1.5673    2.9898    1.0349 H   0  0  0  0  0  0  0  0  0  0  0  0
   -2.7468   -4.1962   -0.2639 H   0  0  0  0  0  0  0  0  0  0  0  0
   -4.0761   -3.4563    0.6141 H   0  0  0  0  0  0  0  0  0  0  0  0
   -2.0393    2.5016   -1.9629 H   0  0  0  0  0  0  0  0  0  0  0  0
   -3.0998    3.4970   -0.9605 H   0  0  0  0  0  0  0  0  0  0  0  0
   -2.5920   -1.9162    1.7700 H   0  0  0  0  0  0  0  0  0  0  0  0
   -2.0134   -3.5613    1.9603 H   0  0  0  0  0  0  0  0  0  0  0  0
   -4.0585   -2.6851   -1.7211 H   0  0  0  0  0  0  0  0  0  0  0  0
   -2.3851   -2.1603   -1.5861 H   0  0  0  0  0  0  0  0  0  0  0  0
   -0.2879   -3.1329    0.0921 H   0  0  0  0  0  0  0  0  0  0  0  0
   -0.1833    4.2609   -1.4014 H   0  0  0  0  0  0  0  0  0  0  0  0
    0.2738    4.5038    0.2774 H   0  0  0  0  0  0  0  0  0  0  0  0
   -1.2906    5.1133   -0.2983 H   0  0  0  0  0  0  0  0  0  0  0  0
   -3.7298    1.5429    0.4426 H   0  0  0  0  0  0  0  0  0  0  0  0
   -0.7308   -0.4870    1.5784 H   0  0  0  0  0  0  0  0  0  0  0  0
   -2.5197    0.1284   -2.0147 H   0  0  0  0  0  0  0  0  0  0  0  0
    1.9098   -2.7733    0.1219 H   0  0  0  0  0  0  0  0  0  0  0  0
    4.6843    0.4319   -0.6600 H   0  0  0  0  0  0  0  0  0  0  0  0
    2.3809    2.8847    0.2904 H   0  0  0  0  0  0  0  0  0  0  0  0
    5.5073   -1.1231   -2.0119 H   0  0  0  0  0  0  0  0  0  0  0  0
    6.1055   -1.2301   -0.2966 H   0  0  0  0  0  0  0  0  0  0  0  0
    6.1887   -2.6163   -1.3773 H   0  0  0  0  0  0  0  0  0  0  0  0
  1  6  1  0  0  0  0
  1 18  1  0  0  0  0
  2 22  1  0  0  0  0
  2 24  1  0  0  0  0
  3 20  1  0  0  0  0
  3 43  1  0  0  0  0
  4 16  2  0  0  0  0
  5 18  2  0  0  0  0
  6  8  1  0  0  0  0
  6 14  1  0  0  0  0
  6 25  1  0  0  0  0
  7  9  1  0  0  0  0
  7 10  1  0  0  0  0
  7 26  1  0  0  0  0
  7 27  1  0  0  0  0
  8 15  1  0  0  0  0
  8 28  1  0  0  0  0
  8 29  1  0  0  0  0
  9 13  1  0  0  0  0
  9 30  1  0  0  0  0
  9 31  1  0  0  0  0
 10 16  1  0  0  0  0
 10 32  1  0  0  0  0
 10 33  1  0  0  0  0
 11 12  2  0  0  0  0
 11 17  1  0  0  0  0
 11 21  1  0  0  0  0
 12 18  1  0  0  0  0
 12 20  1  0  0  0  0
 13 17  2  0  0  0  0
 13 34  1  0  0  0  0
 14 35  1  0  0  0  0
 14 36  1  0  0  0  0
 14 37  1  0  0  0  0
 15 19  2  0  0  0  0
 15 38  1  0  0  0  0
 16 19  1  0  0  0  0
 17 39  1  0  0  0  0
 19 40  1  0  0  0  0
 20 23  2  0  0  0  0
 21 22  2  0  0  0  0
 21 41  1  0  0  0  0
 22 23  1  0  0  0  0
 23 42  1  0  0  0  0
 24 44  1  0  0  0  0
 24 45  1  0  0  0  0
 24 46  1  0  0  0  0
M  END
> <PUBCHEM_COMPOUND_CID>
49842666

> <PUBCHEM_CONFORMER_RMSD>
0.6

> <PUBCHEM_CONFORMER_DIVERSEORDER>
1
16
7
10
13
2
14
12
11
15
3
5
9
6
8
4

> <PUBCHEM_MMFF94_PARTIAL_CHARGES>
29
1 -0.43
10 0.06
11 0.03
12 0.09
13 -0.29
15 -0.29
16 0.49
17 -0.18
18 0.63
19 -0.14
2 -0.36
20 0.08
21 -0.15
22 0.08
23 -0.15
24 0.28
3 -0.53
34 0.15
38 0.15
39 0.15
4 -0.57
40 0.15
41 0.15
42 0.15
43 0.45
5 -0.57
6 0.28
8 0.14
9 0.14

> <PUBCHEM_EFFECTIVE_ROTOR_COUNT>
2.2

> <PUBCHEM_PHARMACOPHORE_FEATURES>
5
1 2 acceptor
1 3 donor
1 4 acceptor
1 5 acceptor
6 11 12 20 21 22 23 rings

> <PUBCHEM_HEAVY_ATOM_COUNT>
24

> <PUBCHEM_ATOM_DEF_STEREO_COUNT>
1

> <PUBCHEM_ATOM_UDEF_STEREO_COUNT>
0

> <PUBCHEM_BOND_DEF_STEREO_COUNT>
2

> <PUBCHEM_BOND_UDEF_STEREO_COUNT>
0

> <PUBCHEM_ISOTOPIC_ATOM_COUNT>
0

> <PUBCHEM_COMPONENT_COUNT>
1

> <PUBCHEM_CACTVS_TAUTO_COUNT>
90

> <PUBCHEM_CONFORMER_ID>
02F889EA00000001

> <PUBCHEM_MMFF94_ENERGY>
65.9578

> <PUBCHEM_FEATURE_SELFOVERLAP>
25.373

> <PUBCHEM_SHAPE_FINGERPRINT>
10498660 4 18115290294106969399
108634 29 18408600387934759226
1100329 8 17256240441369434699
116883 192 18410856564341081698
12054548 360 18338510941084919695
12156800 1 11406244867440004275
12553582 1 18336531820534841421
12788726 201 18265050241356234466
13402501 40 18410009962015725943
13583140 156 14116958998819147418
138480 1 15744437126497363917
13941206 138 17824549569141508491
13989917 61 17111848722458092443
14114206 34 18192970665659452693
14114211 80 16388211767232872829
14251740 79 18265902362783189050
14251745 187 18265324195786680785
14251751 93 18265048020672902407
14251757 17 18409729534752611674
14251757 5 18337959982569977870
14289585 56 16592259745138342342
14363568 33 17614868612846381969
14790565 3 17619918253416119536
14931854 50 18120926222969595135
15081414 286 18265622172101680009
15210252 30 17895755230577503260
17357779 13 18193831768016146375
19591789 44 18337388232745089897
19930381 70 17328298555641652879
20775438 99 17191741341971254695
21141583 151 18410569595963919537
21634736 98 18410285878961636916
21756936 100 11891344183656976838
221357 26 18411696608394470695
221490 88 18412824673096348396
22907989 373 17972636292359049420
23379529 103 18201725028906402822
23419403 2 17489005120597847610
23559900 14 18341041957092068936
2818148 4 17609812994569691123
2871803 45 18336251367591737381
5283173 99 18337669724959665894
58779409 54 18338802200366733610
6287921 2 17690843784537582099
9709674 26 18410853282948988460
9862886 166 18410292480890957726

> <PUBCHEM_SHAPE_MULTIPOLES>
464.56
8.44
4.75
1.15
5.01
2.62
0.19
-5.68
-3.52
-2.6
0.1
-0.07
-0.07
1.31

> <PUBCHEM_SHAPE_SELFOVERLAP>
967.672

> <PUBCHEM_SHAPE_VOLUME>
261.3

> <PUBCHEM_COORDINATE_TYPE>
2
5
10

$$$$
