49830380
  -OEChem-10052115183D

 47 50  0     0  0  0  0  0  0999 V2000
    8.1260   -0.8791   -1.5317 F   0  0  0  0  0  0  0  0  0  0  0  0
    9.0666    0.2888    0.0429 F   0  0  0  0  0  0  0  0  0  0  0  0
    7.9708    1.2841   -1.5499 F   0  0  0  0  0  0  0  0  0  0  0  0
    1.5559   -0.2451    1.4382 O   0  0  0  0  0  0  0  0  0  0  0  0
   -6.5312    2.3388    0.0637 N   0  0  0  0  0  0  0  0  0  0  0  0
   -7.6115    1.5467    0.2069 N   0  0  0  0  0  0  0  0  0  0  0  0
    0.7567   -0.3227   -0.7630 N   0  0  0  0  0  0  0  0  0  0  0  0
    3.0279   -0.1553   -0.3767 N   0  0  0  0  0  0  0  0  0  0  0  0
   -5.6905    0.3520   -0.0007 C   0  0  0  0  0  0  0  0  0  0  0  0
   -4.8098   -0.7188   -0.0863 C   0  0  0  0  0  0  0  0  0  0  0  0
   -7.1225    0.2944    0.1712 C   0  0  0  0  0  0  0  0  0  0  0  0
   -5.3475    1.6727   -0.0655 C   0  0  0  0  0  0  0  0  0  0  0  0
   -3.3872   -0.6176   -0.2592 C   0  0  0  0  0  0  0  0  0  0  0  0
   -5.4963   -1.9448    0.0179 C   0  0  0  0  0  0  0  0  0  0  0  0
   -7.7815   -0.9448    0.2723 C   0  0  0  0  0  0  0  0  0  0  0  0
   -2.8408   -0.5896   -1.5423 C   0  0  0  0  0  0  0  0  0  0  0  0
   -2.5524   -0.5470    0.8560 C   0  0  0  0  0  0  0  0  0  0  0  0
   -6.9123   -2.0547    0.1888 C   0  0  0  0  0  0  0  0  0  0  0  0
   -4.0793    2.4052   -0.2296 C   0  0  0  0  0  0  0  0  0  0  0  0
   -0.6249   -0.4209   -0.5950 C   0  0  0  0  0  0  0  0  0  0  0  0
   -1.4597   -0.4913   -1.7103 C   0  0  0  0  0  0  0  0  0  0  0  0
   -1.1712   -0.4488    0.6881 C   0  0  0  0  0  0  0  0  0  0  0  0
    4.2910   -0.0584    0.2534 C   0  0  0  0  0  0  0  0  0  0  0  0
    1.7642   -0.2410    0.2292 C   0  0  0  0  0  0  0  0  0  0  0  0
    6.6958    0.1195    0.1054 C   0  0  0  0  0  0  0  0  0  0  0  0
    5.4512    0.0216   -0.5168 C   0  0  0  0  0  0  0  0  0  0  0  0
    4.3754   -0.0402    1.6456 C   0  0  0  0  0  0  0  0  0  0  0  0
    6.7803    0.1374    1.4976 C   0  0  0  0  0  0  0  0  0  0  0  0
    5.6201    0.0575    2.2676 C   0  0  0  0  0  0  0  0  0  0  0  0
    7.9368    0.2014   -0.7180 C   0  0  0  0  0  0  0  0  0  0  0  0
   -4.9286   -2.8751   -0.0332 H   0  0  0  0  0  0  0  0  0  0  0  0
   -8.8505   -1.0501    0.4017 H   0  0  0  0  0  0  0  0  0  0  0  0
   -6.6792    3.3402    0.0633 H   0  0  0  0  0  0  0  0  0  0  0  0
   -3.4775   -0.6428   -2.4224 H   0  0  0  0  0  0  0  0  0  0  0  0
   -2.9634   -0.5669    1.8628 H   0  0  0  0  0  0  0  0  0  0  0  0
   -7.3425   -3.0533    0.2582 H   0  0  0  0  0  0  0  0  0  0  0  0
   -3.5997    2.1614   -1.1814 H   0  0  0  0  0  0  0  0  0  0  0  0
   -4.2443    3.4889   -0.2288 H   0  0  0  0  0  0  0  0  0  0  0  0
   -3.3882    2.1923    0.5905 H   0  0  0  0  0  0  0  0  0  0  0  0
   -1.0476   -0.4702   -2.7160 H   0  0  0  0  0  0  0  0  0  0  0  0
   -0.5941   -0.3984    1.6002 H   0  0  0  0  0  0  0  0  0  0  0  0
    1.0796   -0.3081   -1.7272 H   0  0  0  0  0  0  0  0  0  0  0  0
    5.3894    0.0078   -1.6026 H   0  0  0  0  0  0  0  0  0  0  0  0
    3.0480   -0.1623   -1.3933 H   0  0  0  0  0  0  0  0  0  0  0  0
    3.5262   -0.0979    2.3110 H   0  0  0  0  0  0  0  0  0  0  0  0
    7.7398    0.2124    2.0017 H   0  0  0  0  0  0  0  0  0  0  0  0
    5.6871    0.0714    3.3517 H   0  0  0  0  0  0  0  0  0  0  0  0
  1 30  1  0  0  0  0
  2 30  1  0  0  0  0
  3 30  1  0  0  0  0
  4 24  2  0  0  0  0
  5  6  1  0  0  0  0
  5 12  1  0  0  0  0
  5 33  1  0  0  0  0
  6 11  2  0  0  0  0
  7 20  1  0  0  0  0
  7 24  1  0  0  0  0
  7 42  1  0  0  0  0
  8 23  1  0  0  0  0
  8 24  1  0  0  0  0
  8 44  1  0  0  0  0
  9 10  1  0  0  0  0
  9 11  1  0  0  0  0
  9 12  2  0  0  0  0
 10 13  1  0  0  0  0
 10 14  2  0  0  0  0
 11 15  1  0  0  0  0
 12 19  1  0  0  0  0
 13 16  2  0  0  0  0
 13 17  1  0  0  0  0
 14 18  1  0  0  0  0
 14 31  1  0  0  0  0
 15 18  2  0  0  0  0
 15 32  1  0  0  0  0
 16 21  1  0  0  0  0
 16 34  1  0  0  0  0
 17 22  2  0  0  0  0
 17 35  1  0  0  0  0
 18 36  1  0  0  0  0
 19 37  1  0  0  0  0
 19 38  1  0  0  0  0
 19 39  1  0  0  0  0
 20 21  2  0  0  0  0
 20 22  1  0  0  0  0
 21 40  1  0  0  0  0
 22 41  1  0  0  0  0
 23 26  1  0  0  0  0
 23 27  2  0  0  0  0
 25 26  2  0  0  0  0
 25 28  1  0  0  0  0
 25 30  1  0  0  0  0
 26 43  1  0  0  0  0
 27 29  1  0  0  0  0
 27 45  1  0  0  0  0
 28 29  2  0  0  0  0
 28 46  1  0  0  0  0
 29 47  1  0  0  0  0
M  END
> <PUBCHEM_COMPOUND_CID>
49830380

> <PUBCHEM_CONFORMER_RMSD>
0.8

> <PUBCHEM_CONFORMER_DIVERSEORDER>
1
13
26
16
31
30
18
11
34
8
15
28
17
10
14
6
32
29
12
24
33
20
4
19
22
3
21
35
5
23
2
37
9
7
36
27
25

> <PUBCHEM_MMFF94_PARTIAL_CHARGES>
41
1 -0.34
11 0.29
12 -0.33
14 -0.15
15 -0.15
16 -0.15
17 -0.15
18 -0.15
19 0.18
2 -0.34
20 0.12
21 -0.15
22 -0.15
23 0.12
24 0.69
25 -0.14
26 -0.15
27 -0.15
28 -0.15
29 -0.15
3 -0.34
30 1.16
31 0.15
32 0.15
33 0.27
34 0.15
35 0.15
36 0.15
4 -0.57
40 0.15
41 0.15
42 0.37
43 0.15
44 0.37
45 0.15
46 0.15
47 0.15
5 0.3
6 -0.71
7 -0.55
8 -0.55

> <PUBCHEM_EFFECTIVE_ROTOR_COUNT>
6

> <PUBCHEM_PHARMACOPHORE_FEATURES>
9
1 4 acceptor
1 5 donor
1 6 acceptor
1 7 donor
1 8 donor
5 5 6 9 11 12 rings
6 13 16 17 20 21 22 rings
6 23 25 26 27 28 29 rings
6 9 10 11 14 15 18 rings

> <PUBCHEM_HEAVY_ATOM_COUNT>
30

> <PUBCHEM_ATOM_DEF_STEREO_COUNT>
0

> <PUBCHEM_ATOM_UDEF_STEREO_COUNT>
0

> <PUBCHEM_BOND_DEF_STEREO_COUNT>
0

> <PUBCHEM_BOND_UDEF_STEREO_COUNT>
0

> <PUBCHEM_ISOTOPIC_ATOM_COUNT>
0

> <PUBCHEM_COMPONENT_COUNT>
1

> <PUBCHEM_CACTVS_TAUTO_COUNT>
41

> <PUBCHEM_CONFORMER_ID>
02F859EC00000001

> <PUBCHEM_MMFF94_ENERGY>
92.8435

> <PUBCHEM_FEATURE_SELFOVERLAP>
45.853

> <PUBCHEM_SHAPE_FINGERPRINT>
10 15 18202558488621146355
10299344 5 17821726139445287522
106641 1 16660370277395501273
11315181 36 17749389283098422539
12082328 90 18409729555942533799
12089408 11 17967249797500037858
12104220 1 17022904554209409981
13835254 42 16009296610418092654
13885169 127 18411139130023240223
14251764 18 17530963592135649554
14251764 46 16008746918459026739
14849402 71 17676775365445741292
14856354 85 18334857260231679719
14933364 13 18343018895545384288
15183329 4 17240479217262963874
15301273 46 18202565077475258534
15328684 2 17895742994337471000
15419008 47 17846493729588191216
15461852 350 18409453608936794963
1577012 14 17894345562154630585
15849732 13 17989487437225154124
15980000 95 17313107453494132748
16989713 51 17845365725901702119
21521721 280 16660363693094585656
21792961 116 17560805398538906714
22224240 67 16370725941721554642
23522609 53 17386588889246022445
23559900 14 14907599255803876915
249057 3 16272206414581493870
2838139 119 14836403644569450411
3092352 35 18113899373417343466
335352 9 15554729997586461952
34797466 226 17458345235253572190
4073 2 18114187423504006243
4339292 15 17774152535635528615
445580 37 18342179942456757400
45270241 37 18272377495356840676
5758199 1 17603303752130114450
58083652 198 16153428376635200757
59682541 35 15430042066759532249
6081469 158 17418379069725665056
6691757 9 18260271859313410147
9962374 69 15141248796636680039

> <PUBCHEM_SHAPE_MULTIPOLES>
569.77
29.36
1.59
1.43
32.91
0.65
0.15
3.12
-0.43
-4.54
-0.1
2.8
-0.09
0.11

> <PUBCHEM_SHAPE_SELFOVERLAP>
1264.726

> <PUBCHEM_SHAPE_VOLUME>
305.8

> <PUBCHEM_COORDINATE_TYPE>
2
5
10

$$$$
