44410959
  -OEChem-10062121593D

 54 57  0     1  0  0  0  0  0999 V2000
    6.5869   -3.3680   -1.3234 Cl  0  0  0  0  0  0  0  0  0  0  0  0
    4.1593   -1.8268   -2.0024 F   0  0  0  0  0  0  0  0  0  0  0  0
   -6.6343   -2.7037   -0.9294 O   0  0  0  0  0  0  0  0  0  0  0  0
   -3.1027    2.3296   -0.2907 O   0  0  0  0  0  0  0  0  0  0  0  0
   -2.9419   -0.8431    0.3515 N   0  0  1  0  0  0  0  0  0  0  0  0
   -7.7396   -0.8168   -0.2184 N   0  0  0  0  0  0  0  0  0  0  0  0
    1.3694    3.8380    0.3269 N   0  0  0  0  0  0  0  0  0  0  0  0
    2.8718    0.0578   -0.4357 N   0  0  0  0  0  0  0  0  0  0  0  0
    3.2278    2.3212    0.0985 N   0  0  0  0  0  0  0  0  0  0  0  0
   -4.1617   -1.6101    0.0632 C   0  0  1  0  0  0  0  0  0  0  0  0
   -4.4188   -2.3433    1.3815 C   0  0  0  0  0  0  0  0  0  0  0  0
   -3.0580   -2.4350    2.0635 C   0  0  0  0  0  0  0  0  0  0  0  0
   -2.0876   -1.7631    1.1064 C   0  0  0  0  0  0  0  0  0  0  0  0
   -5.3441   -0.7376   -0.3383 C   0  0  0  0  0  0  0  0  0  0  0  0
   -2.2710   -0.3534   -0.8467 C   0  0  0  0  0  0  0  0  0  0  0  0
   -1.3098    0.7627   -0.5346 C   0  0  0  0  0  0  0  0  0  0  0  0
   -6.6106   -1.5415   -0.5348 C   0  0  0  0  0  0  0  0  0  0  0  0
   -1.7693    2.0484   -0.2720 C   0  0  0  0  0  0  0  0  0  0  0  0
    0.0569    0.5036   -0.5088 C   0  0  0  0  0  0  0  0  0  0  0  0
    0.9633    1.5382   -0.2186 C   0  0  0  0  0  0  0  0  0  0  0  0
   -0.8617    3.0721    0.0158 C   0  0  0  0  0  0  0  0  0  0  0  0
    0.5114    2.8409    0.0483 C   0  0  0  0  0  0  0  0  0  0  0  0
    2.3413    1.3462   -0.1770 C   0  0  0  0  0  0  0  0  0  0  0  0
   -3.4847    3.6745   -0.0099 C   0  0  0  0  0  0  0  0  0  0  0  0
    2.6807    3.5240    0.3369 C   0  0  0  0  0  0  0  0  0  0  0  0
    4.0254   -0.6004    0.0191 C   0  0  0  0  0  0  0  0  0  0  0  0
    4.6567   -1.5467   -0.7880 C   0  0  0  0  0  0  0  0  0  0  0  0
    4.5399   -0.3060    1.2819 C   0  0  0  0  0  0  0  0  0  0  0  0
    5.8025   -2.1988   -0.3325 C   0  0  0  0  0  0  0  0  0  0  0  0
    5.6855   -0.9582    1.7374 C   0  0  0  0  0  0  0  0  0  0  0  0
    6.3169   -1.9046    0.9304 C   0  0  0  0  0  0  0  0  0  0  0  0
   -3.9637   -2.3584   -0.7180 H   0  0  0  0  0  0  0  0  0  0  0  0
   -4.8361   -3.3411    1.2076 H   0  0  0  0  0  0  0  0  0  0  0  0
   -5.1145   -1.7998    2.0323 H   0  0  0  0  0  0  0  0  0  0  0  0
   -3.0882   -1.9030    3.0217 H   0  0  0  0  0  0  0  0  0  0  0  0
   -2.7729   -3.4726    2.2646 H   0  0  0  0  0  0  0  0  0  0  0  0
   -1.2932   -1.2457    1.6535 H   0  0  0  0  0  0  0  0  0  0  0  0
   -1.6289   -2.5224    0.4597 H   0  0  0  0  0  0  0  0  0  0  0  0
   -5.1520   -0.2221   -1.2859 H   0  0  0  0  0  0  0  0  0  0  0  0
   -5.5112    0.0381    0.4201 H   0  0  0  0  0  0  0  0  0  0  0  0
   -2.9927    0.0485   -1.5687 H   0  0  0  0  0  0  0  0  0  0  0  0
   -1.7664   -1.1638   -1.3907 H   0  0  0  0  0  0  0  0  0  0  0  0
    0.3977   -0.5093   -0.7068 H   0  0  0  0  0  0  0  0  0  0  0  0
   -1.1701    4.0919    0.2276 H   0  0  0  0  0  0  0  0  0  0  0  0
   -7.7019    0.1468    0.0980 H   0  0  0  0  0  0  0  0  0  0  0  0
   -8.6624   -1.2305   -0.3013 H   0  0  0  0  0  0  0  0  0  0  0  0
    2.4541   -0.3863   -1.2491 H   0  0  0  0  0  0  0  0  0  0  0  0
   -4.5775    3.7159   -0.0677 H   0  0  0  0  0  0  0  0  0  0  0  0
   -3.1022    4.3701   -0.7647 H   0  0  0  0  0  0  0  0  0  0  0  0
   -3.2116    3.9685    1.0094 H   0  0  0  0  0  0  0  0  0  0  0  0
    3.3667    4.3315    0.5622 H   0  0  0  0  0  0  0  0  0  0  0  0
    4.0589    0.4164    1.9358 H   0  0  0  0  0  0  0  0  0  0  0  0
    6.0843   -0.7317    2.7219 H   0  0  0  0  0  0  0  0  0  0  0  0
    7.2085   -2.4052    1.2992 H   0  0  0  0  0  0  0  0  0  0  0  0
  1 29  1  0  0  0  0
  2 27  1  0  0  0  0
  3 17  2  0  0  0  0
  4 18  1  0  0  0  0
  4 24  1  0  0  0  0
  5 10  1  0  0  0  0
  5 13  1  0  0  0  0
  5 15  1  0  0  0  0
  6 17  1  0  0  0  0
  6 45  1  0  0  0  0
  6 46  1  0  0  0  0
  7 22  1  0  0  0  0
  7 25  2  0  0  0  0
  8 23  1  0  0  0  0
  8 26  1  0  0  0  0
  8 47  1  0  0  0  0
  9 23  2  0  0  0  0
  9 25  1  0  0  0  0
 10 11  1  0  0  0  0
 10 14  1  0  0  0  0
 10 32  1  0  0  0  0
 11 12  1  0  0  0  0
 11 33  1  0  0  0  0
 11 34  1  0  0  0  0
 12 13  1  0  0  0  0
 12 35  1  0  0  0  0
 12 36  1  0  0  0  0
 13 37  1  0  0  0  0
 13 38  1  0  0  0  0
 14 17  1  0  0  0  0
 14 39  1  0  0  0  0
 14 40  1  0  0  0  0
 15 16  1  0  0  0  0
 15 41  1  0  0  0  0
 15 42  1  0  0  0  0
 16 18  1  0  0  0  0
 16 19  2  0  0  0  0
 18 21  2  0  0  0  0
 19 20  1  0  0  0  0
 19 43  1  0  0  0  0
 20 22  2  0  0  0  0
 20 23  1  0  0  0  0
 21 22  1  0  0  0  0
 21 44  1  0  0  0  0
 24 48  1  0  0  0  0
 24 49  1  0  0  0  0
 24 50  1  0  0  0  0
 25 51  1  0  0  0  0
 26 27  2  0  0  0  0
 26 28  1  0  0  0  0
 27 29  1  0  0  0  0
 28 30  2  0  0  0  0
 28 52  1  0  0  0  0
 29 31  2  0  0  0  0
 30 31  1  0  0  0  0
 30 53  1  0  0  0  0
 31 54  1  0  0  0  0
M  END
> <PUBCHEM_COMPOUND_CID>
44410959

> <PUBCHEM_CONFORMER_RMSD>
1

> <PUBCHEM_CONFORMER_DIVERSEORDER>
1
158
141
119
148
50
139
176
112
182
172
9
99
40
89
179
184
135
162
129
173
32
101
64
96
97
168
10
185
146
133
174
36
120
140
147
193
190
111
33
163
19
4
110
98
165
73
75
83
62
43
134
154
152
188
102
24
171
115
84
34
91
60
93
164
106
149
78
13
143
55
16
57
65
192
92
167
161
81
86
160
53
138
151
41
170
88
108
103
144
71
100
175
157
155
6
85
124
118
186
177
94
107
59
7
113
166
79
35
142
105
130
123
150
95
31
90
69
169
187
5
132
191
44
74
126
47
61
178
183
29
8
77
189
20
38
56
12
125
180
153
11
87
145
28
80
39
156
45
42
18
114
46
121
70
17
63
23
52
82
15
104
117
49
22
48
51
72
68
14
25
116
3
26
127
128
27
109
159
58
137
37
66
21
54
76
30
181
131
2
67
136
122

> <PUBCHEM_MMFF94_PARTIAL_CHARGES>
37
1 -0.18
10 0.27
13 0.27
14 0.06
15 0.41
16 -0.14
17 0.57
18 0.08
19 -0.15
2 -0.19
21 -0.15
22 0.31
23 0.41
24 0.28
25 0.47
26 0.1
27 0.19
28 -0.15
29 0.18
3 -0.57
30 -0.15
31 -0.15
4 -0.36
43 0.15
44 0.15
45 0.37
46 0.37
47 0.4
5 -0.81
51 0.15
52 0.15
53 0.15
54 0.15
6 -0.8
7 -0.62
8 -0.6
9 -0.62

> <PUBCHEM_EFFECTIVE_ROTOR_COUNT>
8

> <PUBCHEM_PHARMACOPHORE_FEATURES>
11
1 3 acceptor
1 4 acceptor
1 5 cation
1 6 donor
1 8 donor
3 7 9 25 cation
3 8 9 23 cation
5 5 10 11 12 13 rings
6 16 18 19 20 21 22 rings
6 26 27 28 29 30 31 rings
6 7 9 20 22 23 25 rings

> <PUBCHEM_HEAVY_ATOM_COUNT>
31

> <PUBCHEM_ATOM_DEF_STEREO_COUNT>
1

> <PUBCHEM_ATOM_UDEF_STEREO_COUNT>
0

> <PUBCHEM_BOND_DEF_STEREO_COUNT>
0

> <PUBCHEM_BOND_UDEF_STEREO_COUNT>
0

> <PUBCHEM_ISOTOPIC_ATOM_COUNT>
0

> <PUBCHEM_COMPONENT_COUNT>
1

> <PUBCHEM_CACTVS_TAUTO_COUNT>
6

> <PUBCHEM_CONFORMER_ID>
02A5A84F00000001

> <PUBCHEM_MMFF94_ENERGY>
101.216

> <PUBCHEM_FEATURE_SELFOVERLAP>
55.994

> <PUBCHEM_SHAPE_FINGERPRINT>
10050765 1 18410854360675660764
10411042 1 18412545388479066836
11578080 2 8574713520277646901
117089 54 18340497647344802398
11828532 37 18041848444594152987
12107183 9 18271257023613660745
12760667 363 18408041810384619907
13140716 1 18411697656430034736
13533116 47 18338232786112920473
13540713 4 18339060640975562628
1361 87 17822589298907389834
14725015 67 18335974311730179451
14866123 147 18335987450673331073
14931854 50 17822006467465952154
15042514 8 18339360756099489509
15351339 4 17896592895208376458
15510800 12 18341890749967212798
15927050 60 17904761086150623033
17138139 8 17676207953685522130
17492 89 18413387644229466988
20028762 73 18343581854163392559
21130935 74 18197500830472282211
21279426 13 18261099791194241029
21307412 95 18124316004369946324
21703447 108 18337100272041104824
22889206 1 17482537990493028281
23536364 44 18188755190193069277
23559900 14 17896320388586829709
23569943 247 18408037408444861235
23576562 1 17967821504860972748
24893992 56 18187364360309523203
255183 451 18411985762999281012
3004659 81 17894630370400872918
3103668 31 18115017495323465189
32027 91 18336267950365703667
3383291 50 18408879634040273627
3421961 26 18339361984697097296
4073 2 18267584607854008082
437815 12 18409167718612417171
5104073 3 18272647948134725584
5309563 4 18341335496516149006
6695519 79 17115248399124504081

> <PUBCHEM_SHAPE_MULTIPOLES>
595.92
17.46
4.91
1.32
2.37
3.67
-0.28
-20.45
1.6
0.05
-0.15
-0.9
-1.2
1.74

> <PUBCHEM_SHAPE_SELFOVERLAP>
1285.63

> <PUBCHEM_SHAPE_VOLUME>
328.7

> <PUBCHEM_COORDINATE_TYPE>
2
5
10

$$$$
