49831024
  -OEChem-10062121553D

 45 50  0     1  0  0  0  0  0999 V2000
    0.8412   -4.1252    0.6344 F   0  0  0  0  0  0  0  0  0  0  0  0
    2.6989   -2.5651   -0.9694 F   0  0  0  0  0  0  0  0  0  0  0  0
   -0.4021   -2.8033   -1.3274 O   0  0  0  0  0  0  0  0  0  0  0  0
   -5.0344    0.8474   -0.4833 O   0  0  0  0  0  0  0  0  0  0  0  0
   -2.6728    0.5758   -0.4332 N   0  0  0  0  0  0  0  0  0  0  0  0
   -3.5439    2.6078    0.0444 N   0  0  0  0  0  0  0  0  0  0  0  0
   -0.2946    1.1938   -0.1545 N   0  0  0  0  0  0  0  0  0  0  0  0
    1.8263    2.0919    0.1822 N   0  0  0  0  0  0  0  0  0  0  0  0
    0.0125    3.5333    0.4610 N   0  0  0  0  0  0  0  0  0  0  0  0
    3.9795    2.5900    0.4179 N   0  0  0  0  0  0  0  0  0  0  0  0
   -2.4928   -0.8141   -0.7814 C   0  0  1  0  0  0  0  0  0  0  0  0
   -1.7399   -0.9213   -2.1072 C   0  0  0  0  0  0  0  0  0  0  0  0
   -1.7835   -1.6005    0.2960 C   0  0  0  0  0  0  0  0  0  0  0  0
   -1.3209   -2.3635   -2.3310 C   0  0  0  0  0  0  0  0  0  0  0  0
   -1.6076    1.4462   -0.1558 C   0  0  0  0  0  0  0  0  0  0  0  0
   -0.7966   -2.5411   -0.0394 C   0  0  0  0  0  0  0  0  0  0  0  0
   -3.9020    1.2771   -0.3155 C   0  0  0  0  0  0  0  0  0  0  0  0
   -2.1584    2.6788    0.1327 C   0  0  0  0  0  0  0  0  0  0  0  0
   -2.1273   -1.4438    1.6483 C   0  0  0  0  0  0  0  0  0  0  0  0
   -0.1295   -3.2589    0.9580 C   0  0  0  0  0  0  0  0  0  0  0  0
   -1.4702   -2.1724    2.6414 C   0  0  0  0  0  0  0  0  0  0  0  0
   -1.3256    3.7138    0.4402 C   0  0  0  0  0  0  0  0  0  0  0  0
    0.4495    2.2790    0.1612 C   0  0  0  0  0  0  0  0  0  0  0  0
   -0.4671   -3.0741    2.2970 C   0  0  0  0  0  0  0  0  0  0  0  0
    2.5022    0.9285   -0.0825 C   0  0  0  0  0  0  0  0  0  0  0  0
    3.8442    1.2653    0.0712 C   0  0  0  0  0  0  0  0  0  0  0  0
    2.7516    3.0547    0.4755 C   0  0  0  0  0  0  0  0  0  0  0  0
    2.0681   -0.3504   -0.4326 C   0  0  0  0  0  0  0  0  0  0  0  0
    4.8251    0.2801   -0.1323 C   0  0  0  0  0  0  0  0  0  0  0  0
    3.0579   -1.3186   -0.6314 C   0  0  0  0  0  0  0  0  0  0  0  0
    4.4125   -1.0111   -0.4844 C   0  0  0  0  0  0  0  0  0  0  0  0
   -3.4864   -1.2641   -0.9082 H   0  0  0  0  0  0  0  0  0  0  0  0
   -0.8404   -0.2974   -2.1266 H   0  0  0  0  0  0  0  0  0  0  0  0
   -2.3789   -0.5768   -2.9290 H   0  0  0  0  0  0  0  0  0  0  0  0
   -2.1845   -3.0398   -2.3523 H   0  0  0  0  0  0  0  0  0  0  0  0
   -0.8134   -2.4543   -3.2972 H   0  0  0  0  0  0  0  0  0  0  0  0
   -2.9111   -0.7507    1.9438 H   0  0  0  0  0  0  0  0  0  0  0  0
   -4.1794    3.3784    0.2100 H   0  0  0  0  0  0  0  0  0  0  0  0
   -1.7413   -2.0339    3.6840 H   0  0  0  0  0  0  0  0  0  0  0  0
   -1.6804    4.7081    0.6774 H   0  0  0  0  0  0  0  0  0  0  0  0
    0.0494   -3.6351    3.0700 H   0  0  0  0  0  0  0  0  0  0  0  0
    2.4955    4.0764    0.7247 H   0  0  0  0  0  0  0  0  0  0  0  0
    1.0363   -0.6190   -0.5723 H   0  0  0  0  0  0  0  0  0  0  0  0
    5.8801    0.5090   -0.0206 H   0  0  0  0  0  0  0  0  0  0  0  0
    5.1583   -1.7851   -0.6455 H   0  0  0  0  0  0  0  0  0  0  0  0
  1 20  1  0  0  0  0
  2 30  1  0  0  0  0
  3 14  1  0  0  0  0
  3 16  1  0  0  0  0
  4 17  2  0  0  0  0
  5 11  1  0  0  0  0
  5 15  1  0  0  0  0
  5 17  1  0  0  0  0
  6 17  1  0  0  0  0
  6 18  1  0  0  0  0
  6 38  1  0  0  0  0
  7 15  2  0  0  0  0
  7 23  1  0  0  0  0
  8 23  1  0  0  0  0
  8 25  1  0  0  0  0
  8 27  1  0  0  0  0
  9 22  1  0  0  0  0
  9 23  2  0  0  0  0
 10 26  1  0  0  0  0
 10 27  2  0  0  0  0
 11 12  1  0  0  0  0
 11 13  1  0  0  0  0
 11 32  1  0  0  0  0
 12 14  1  0  0  0  0
 12 33  1  0  0  0  0
 12 34  1  0  0  0  0
 13 16  2  0  0  0  0
 13 19  1  0  0  0  0
 14 35  1  0  0  0  0
 14 36  1  0  0  0  0
 15 18  1  0  0  0  0
 16 20  1  0  0  0  0
 18 22  2  0  0  0  0
 19 21  2  0  0  0  0
 19 37  1  0  0  0  0
 20 24  2  0  0  0  0
 21 24  1  0  0  0  0
 21 39  1  0  0  0  0
 22 40  1  0  0  0  0
 24 41  1  0  0  0  0
 25 26  2  0  0  0  0
 25 28  1  0  0  0  0
 26 29  1  0  0  0  0
 27 42  1  0  0  0  0
 28 30  2  0  0  0  0
 28 43  1  0  0  0  0
 29 31  2  0  0  0  0
 29 44  1  0  0  0  0
 30 31  1  0  0  0  0
 31 45  1  0  0  0  0
M  END
> <PUBCHEM_COMPOUND_CID>
49831024

> <PUBCHEM_CONFORMER_RMSD>
0.8

> <PUBCHEM_CONFORMER_DIVERSEORDER>
1
41
15
31
24
34
22
36
2
21
17
7
33
26
18
32
16
42
23
13
27
12
35
10
37
40
38
5
14
39
9
28
11
8
25
20
6
19
29
30
3
4

> <PUBCHEM_MMFF94_PARTIAL_CHARGES>
39
1 -0.19
10 -0.57
11 0.44
13 -0.14
14 0.28
15 0.43
16 0.08
17 0.69
18 0.12
19 -0.15
2 -0.19
20 0.19
21 -0.15
22 0.16
23 0.6
24 -0.15
25 -0.15
26 0.23
27 0.04
28 -0.15
29 -0.15
3 -0.36
30 0.19
31 -0.15
37 0.15
38 0.37
39 0.15
4 -0.57
40 0.15
41 0.15
42 0.15
43 0.15
44 0.15
45 0.15
5 -0.48
6 -0.55
7 -0.62
8 0.33
9 -0.62

> <PUBCHEM_EFFECTIVE_ROTOR_COUNT>
2.8

> <PUBCHEM_PHARMACOPHORE_FEATURES>
10
1 3 acceptor
1 4 acceptor
1 6 donor
4 7 8 9 23 cation
5 5 6 15 17 18 rings
5 8 10 25 26 27 rings
6 13 16 19 20 21 24 rings
6 25 26 28 29 30 31 rings
6 3 11 12 13 14 16 rings
6 7 9 15 18 22 23 rings

> <PUBCHEM_HEAVY_ATOM_COUNT>
31

> <PUBCHEM_ATOM_DEF_STEREO_COUNT>
0

> <PUBCHEM_ATOM_UDEF_STEREO_COUNT>
1

> <PUBCHEM_BOND_DEF_STEREO_COUNT>
0

> <PUBCHEM_BOND_UDEF_STEREO_COUNT>
0

> <PUBCHEM_ISOTOPIC_ATOM_COUNT>
0

> <PUBCHEM_COMPONENT_COUNT>
1

> <PUBCHEM_CACTVS_TAUTO_COUNT>
2

> <PUBCHEM_CONFORMER_ID>
02F85C7000000001

> <PUBCHEM_MMFF94_ENERGY>
88.8817

> <PUBCHEM_FEATURE_SELFOVERLAP>
50.999

> <PUBCHEM_SHAPE_FINGERPRINT>
10616163 171 18269272546558914500
10653451 467 17538843990237976139
10675989 125 18192695783395198653
10721379 63 17249995396355567255
107951 10 18186522085934043059
1100329 8 16967454790486468945
11607047 403 14541367498296411893
12156800 1 11765127682563701083
12422481 6 18124064410013620139
12539773 59 16481361215084649606
12553582 1 17834402589374913876
13122387 1 17979073786895198852
13140716 1 18411427189148139409
13402501 40 18410578396330933408
14114207 22 16097044234318740938
14725015 67 18337383829781139088
14787075 74 18115877308893966779
14931854 50 18265899042809977564
19591789 44 18341048519517448981
19930381 70 18056479439655195935
20764821 26 18336547222002624586
20905425 154 17619067235589050541
23559900 14 18341607157624742800
3298306 158 18118958101203260685
3380486 145 17469892545826770163
3383291 50 18410290277135443906
3411729 13 18051703144576781809
35225 105 18188196628941966806
392239 28 17972619692521629099
445580 42 18187922915519604802
469060 322 17046260658968591194
5081480 168 16913730664205476110
5309563 4 17039511860612447722
9709674 26 18339360872237393908
9981440 41 18124859399511212066

> <PUBCHEM_SHAPE_MULTIPOLES>
581.79
7.11
5.29
1.67
5.3
0.15
0.24
3.02
-0.96
-0.98
1.44
-1.28
-1.98
0.98

> <PUBCHEM_SHAPE_SELFOVERLAP>
1332.805

> <PUBCHEM_SHAPE_VOLUME>
301.5

> <PUBCHEM_COORDINATE_TYPE>
2
5
10

$$$$
