15289411
  -OEChem-10052115143D

 49 52  0     0  0  0  0  0  0999 V2000
    5.2262    0.0628    1.2705 S   0  0  0  0  0  0  0  0  0  0  0  0
   -2.7598   -0.1775    2.6046 O   0  0  0  0  0  0  0  0  0  0  0  0
   -6.0356   -1.4455   -0.3376 O   0  0  0  0  0  0  0  0  0  0  0  0
    0.4414    0.8851   -0.6605 N   0  0  0  0  0  0  0  0  0  0  0  0
   -4.6045   -0.9774    1.4426 N   0  0  0  0  0  0  0  0  0  0  0  0
    7.8191   -0.3811    1.4345 N   0  0  0  0  0  0  0  0  0  0  0  0
    6.9231   -0.3126   -0.7495 N   0  0  0  0  0  0  0  0  0  0  0  0
   -0.5204   -0.0580   -0.4160 C   0  0  0  0  0  0  0  0  0  0  0  0
   -1.6911    0.5993   -0.1148 C   0  0  0  0  0  0  0  0  0  0  0  0
   -0.0868    2.1490   -0.5227 C   0  0  0  0  0  0  0  0  0  0  0  0
   -1.4317    1.9970   -0.1786 C   0  0  0  0  0  0  0  0  0  0  0  0
    1.8190    0.6060   -1.0159 C   0  0  0  0  0  0  0  0  0  0  0  0
    2.7195    0.4934    0.2152 C   0  0  0  0  0  0  0  0  0  0  0  0
   -2.9347   -0.0315    0.2026 C   0  0  0  0  0  0  0  0  0  0  0  0
   -0.2493   -1.4801   -0.4887 C   0  0  0  0  0  0  0  0  0  0  0  0
    0.5169    3.4022   -0.6749 C   0  0  0  0  0  0  0  0  0  0  0  0
   -2.2144    3.1509    0.0240 C   0  0  0  0  0  0  0  0  0  0  0  0
    4.1577    0.1884   -0.1921 C   0  0  0  0  0  0  0  0  0  0  0  0
   -0.2792    4.5325   -0.4690 C   0  0  0  0  0  0  0  0  0  0  0  0
   -1.6241    4.4112   -0.1249 C   0  0  0  0  0  0  0  0  0  0  0  0
   -3.3772   -0.3920    1.5753 C   0  0  0  0  0  0  0  0  0  0  0  0
   -3.9162   -0.3946   -0.6346 C   0  0  0  0  0  0  0  0  0  0  0  0
   -0.4198   -2.1541   -1.6941 C   0  0  0  0  0  0  0  0  0  0  0  0
    0.1787   -2.1612    0.6466 C   0  0  0  0  0  0  0  0  0  0  0  0
   -5.0030   -1.0102    0.1401 C   0  0  0  0  0  0  0  0  0  0  0  0
   -0.1600   -3.5226   -1.7649 C   0  0  0  0  0  0  0  0  0  0  0  0
    0.4386   -3.5299    0.5757 C   0  0  0  0  0  0  0  0  0  0  0  0
    0.2692   -4.2105   -0.6300 C   0  0  0  0  0  0  0  0  0  0  0  0
    6.7986   -0.2390    0.5371 C   0  0  0  0  0  0  0  0  0  0  0  0
    2.1684    1.4030   -1.6817 H   0  0  0  0  0  0  0  0  0  0  0  0
    1.8510   -0.3137   -1.6093 H   0  0  0  0  0  0  0  0  0  0  0  0
    2.3468   -0.2900    0.8844 H   0  0  0  0  0  0  0  0  0  0  0  0
    2.6806    1.4339    0.7801 H   0  0  0  0  0  0  0  0  0  0  0  0
    1.5636    3.5104   -0.9376 H   0  0  0  0  0  0  0  0  0  0  0  0
   -3.2642    3.0745    0.2931 H   0  0  0  0  0  0  0  0  0  0  0  0
    4.1958   -0.7567   -0.7442 H   0  0  0  0  0  0  0  0  0  0  0  0
    4.5335    0.9853   -0.8429 H   0  0  0  0  0  0  0  0  0  0  0  0
    0.1591    5.5212   -0.5780 H   0  0  0  0  0  0  0  0  0  0  0  0
   -2.2228    5.3047    0.0305 H   0  0  0  0  0  0  0  0  0  0  0  0
   -3.9364   -0.2778   -1.7062 H   0  0  0  0  0  0  0  0  0  0  0  0
   -0.7538   -1.6313   -2.5871 H   0  0  0  0  0  0  0  0  0  0  0  0
    0.3103   -1.6459    1.5948 H   0  0  0  0  0  0  0  0  0  0  0  0
   -5.1559   -1.3281    2.2175 H   0  0  0  0  0  0  0  0  0  0  0  0
   -0.2919   -4.0527   -2.7036 H   0  0  0  0  0  0  0  0  0  0  0  0
    0.7716   -4.0658    1.4597 H   0  0  0  0  0  0  0  0  0  0  0  0
    0.4712   -5.2762   -0.6849 H   0  0  0  0  0  0  0  0  0  0  0  0
    8.7699   -0.5595    1.1303 H   0  0  0  0  0  0  0  0  0  0  0  0
    7.6549   -0.3136    2.4330 H   0  0  0  0  0  0  0  0  0  0  0  0
    7.9071   -0.4929   -0.9768 H   0  0  0  0  0  0  0  0  0  0  0  0
  1 18  1  0  0  0  0
  1 29  1  0  0  0  0
  2 21  2  0  0  0  0
  3 25  2  0  0  0  0
  4  8  1  0  0  0  0
  4 10  1  0  0  0  0
  4 12  1  0  0  0  0
  5 21  1  0  0  0  0
  5 25  1  0  0  0  0
  5 43  1  0  0  0  0
  6 29  1  0  0  0  0
  6 47  1  0  0  0  0
  6 48  1  0  0  0  0
  7 29  2  0  0  0  0
  7 49  1  0  0  0  0
  8  9  2  0  0  0  0
  8 15  1  0  0  0  0
  9 11  1  0  0  0  0
  9 14  1  0  0  0  0
 10 11  1  0  0  0  0
 10 16  2  0  0  0  0
 11 17  2  0  0  0  0
 12 13  1  0  0  0  0
 12 30  1  0  0  0  0
 12 31  1  0  0  0  0
 13 18  1  0  0  0  0
 13 32  1  0  0  0  0
 13 33  1  0  0  0  0
 14 21  1  0  0  0  0
 14 22  2  0  0  0  0
 15 23  2  0  0  0  0
 15 24  1  0  0  0  0
 16 19  1  0  0  0  0
 16 34  1  0  0  0  0
 17 20  1  0  0  0  0
 17 35  1  0  0  0  0
 18 36  1  0  0  0  0
 18 37  1  0  0  0  0
 19 20  2  0  0  0  0
 19 38  1  0  0  0  0
 20 39  1  0  0  0  0
 22 25  1  0  0  0  0
 22 40  1  0  0  0  0
 23 26  1  0  0  0  0
 23 41  1  0  0  0  0
 24 27  2  0  0  0  0
 24 42  1  0  0  0  0
 26 28  2  0  0  0  0
 26 44  1  0  0  0  0
 27 28  1  0  0  0  0
 27 45  1  0  0  0  0
 28 46  1  0  0  0  0
M  END
> <PUBCHEM_COMPOUND_CID>
15289411

> <PUBCHEM_CONFORMER_RMSD>
0.8

> <PUBCHEM_CONFORMER_DIVERSEORDER>
1
29
46
8
48
52
36
13
37
10
34
49
12
57
19
54
38
58
27
51
18
22
11
35
33
31
9
20
56
44
21
15
32
50
40
53
28
23
26
24
55
41
30
17
7
3
25
45
39
5
4
16
42
6
43
2
14
47

> <PUBCHEM_MMFF94_PARTIAL_CHARGES>
41
1 -0.37
10 -0.15
12 0.26
14 0.06
15 0.05
16 -0.15
17 -0.15
18 0.23
19 -0.15
2 -0.57
20 -0.15
21 0.62
22 -0.14
23 -0.15
24 -0.15
25 0.62
26 -0.15
27 -0.15
28 -0.15
29 0.64
3 -0.57
34 0.15
35 0.15
38 0.15
39 0.15
4 0.05
40 0.15
41 0.15
42 0.15
43 0.37
44 0.15
45 0.15
46 0.15
47 0.4
48 0.4
49 0.4
5 -0.49
6 -0.85
7 -0.85
8 -0.2
9 -0.05

> <PUBCHEM_EFFECTIVE_ROTOR_COUNT>
7.2

> <PUBCHEM_PHARMACOPHORE_FEATURES>
11
1 2 acceptor
1 3 acceptor
1 4 cation
1 5 donor
1 6 donor
1 7 donor
3 6 7 29 cation
5 4 8 9 10 11 rings
5 5 14 21 22 25 rings
6 10 11 16 17 19 20 rings
6 15 23 24 26 27 28 rings

> <PUBCHEM_HEAVY_ATOM_COUNT>
29

> <PUBCHEM_ATOM_DEF_STEREO_COUNT>
0

> <PUBCHEM_ATOM_UDEF_STEREO_COUNT>
0

> <PUBCHEM_BOND_DEF_STEREO_COUNT>
0

> <PUBCHEM_BOND_UDEF_STEREO_COUNT>
0

> <PUBCHEM_ISOTOPIC_ATOM_COUNT>
0

> <PUBCHEM_COMPONENT_COUNT>
1

> <PUBCHEM_CACTVS_TAUTO_COUNT>
3

> <PUBCHEM_CONFORMER_ID>
00E94C4300000001

> <PUBCHEM_MMFF94_ENERGY>
64.845

> <PUBCHEM_FEATURE_SELFOVERLAP>
55.951

> <PUBCHEM_SHAPE_FINGERPRINT>
10906281 52 18119521051568177605
10930396 42 18196346291485776504
1100329 8 18194118749077646583
11578080 2 17843688746982332217
12788726 201 18263097612248528660
12930653 34 18267304222949606164
13140716 1 18122908886825454639
13617811 41 18336275595670721972
13911987 19 18262810677998814925
13965767 371 17267550156139277297
14117953 113 18412825798599157647
14955137 171 18263362653988988899
15042514 8 18338796848505342398
15420108 30 18059581222508719155
15927050 60 17978792303207578733
16728300 4 17896864500645457778
19319366 153 17247551452389721284
20028762 73 18129382768842131943
21033648 29 18058149680008118656
21756936 100 13901896826591663356
21796203 349 17974041549444372576
22440779 20 13394925342170669316
23559900 14 16878790555117172541
25019877 29 17489591203092410934
283562 15 18338235964119713720
3178227 256 18264781024759206611
335507 130 18408319996544983858
3380486 145 18263940847520530089
3380486 77 18266475362976004989
3383291 50 18408882958497876570
469060 322 18339094708581886240
5171179 24 17909559363084194078
5265222 85 18412833470007184934
56638632 33 17985821772864422200
9896288 288 18267582408435256648
9981440 41 18123460592882095040

> <PUBCHEM_SHAPE_MULTIPOLES>
568.99
11.85
5.29
1.45
23.71
2.39
0.46
-2.96
5.15
-2.76
-1.84
-0.22
-0.76
0.12

> <PUBCHEM_SHAPE_SELFOVERLAP>
1239.702

> <PUBCHEM_SHAPE_VOLUME>
314.7

> <PUBCHEM_COORDINATE_TYPE>
2
5
10

$$$$
