24905148
  -OEChem-10052115153D

 41 45  0     0  0  0  0  0  0999 V2000
   -2.2149    0.1566    0.0103 N   0  0  0  0  0  0  0  0  0  0  0  0
   -1.0655    0.8410   -0.1392 N   0  0  0  0  0  0  0  0  0  0  0  0
   -2.9961   -2.1252    0.2238 N   0  0  0  0  0  0  0  0  0  0  0  0
   -1.1522   -3.7205    0.1500 N   0  0  0  0  0  0  0  0  0  0  0  0
    3.9824    0.7510   -0.5661 N   0  0  0  0  0  0  0  0  0  0  0  0
    1.1235   -3.0526   -0.1035 N   0  0  0  0  0  0  0  0  0  0  0  0
    4.3403    0.9089    1.6343 N   0  0  0  0  0  0  0  0  0  0  0  0
   -3.5255    0.9074    0.0863 C   0  0  0  0  0  0  0  0  0  0  0  0
   -3.8493    1.7576   -1.1599 C   0  0  0  0  0  0  0  0  0  0  0  0
   -3.5802    1.8794    1.2785 C   0  0  0  0  0  0  0  0  0  0  0  0
   -3.9222    3.1995   -0.6706 C   0  0  0  0  0  0  0  0  0  0  0  0
   -4.3813    3.0686    0.7708 C   0  0  0  0  0  0  0  0  0  0  0  0
   -2.0405   -1.1937    0.0771 C   0  0  0  0  0  0  0  0  0  0  0  0
   -0.6782   -1.4090   -0.0368 C   0  0  0  0  0  0  0  0  0  0  0  0
   -0.1335   -0.1179   -0.1671 C   0  0  0  0  0  0  0  0  0  0  0  0
    1.3053    0.1796   -0.3196 C   0  0  0  0  0  0  0  0  0  0  0  0
   -0.2410   -2.7287    0.0038 C   0  0  0  0  0  0  0  0  0  0  0  0
    2.0394    0.3816    0.8010 C   0  0  0  0  0  0  0  0  0  0  0  0
    1.9418    0.2707   -1.6386 C   0  0  0  0  0  0  0  0  0  0  0  0
   -2.4546   -3.3622    0.2495 C   0  0  0  0  0  0  0  0  0  0  0  0
    3.4319    0.6784    0.7080 C   0  0  0  0  0  0  0  0  0  0  0  0
    3.2514    0.5507   -1.7302 C   0  0  0  0  0  0  0  0  0  0  0  0
    5.3127    1.0438   -0.4099 C   0  0  0  0  0  0  0  0  0  0  0  0
    5.5063    1.1349    0.9483 C   0  0  0  0  0  0  0  0  0  0  0  0
   -4.2941    0.1335    0.2013 H   0  0  0  0  0  0  0  0  0  0  0  0
   -4.8290    1.4583   -1.5524 H   0  0  0  0  0  0  0  0  0  0  0  0
   -3.1230    1.6417   -1.9706 H   0  0  0  0  0  0  0  0  0  0  0  0
   -2.5799    2.2101    1.5817 H   0  0  0  0  0  0  0  0  0  0  0  0
   -4.0495    1.4185    2.1537 H   0  0  0  0  0  0  0  0  0  0  0  0
   -4.6031    3.8078   -1.2727 H   0  0  0  0  0  0  0  0  0  0  0  0
   -2.9274    3.6591   -0.7101 H   0  0  0  0  0  0  0  0  0  0  0  0
   -4.1928    3.9751    1.3527 H   0  0  0  0  0  0  0  0  0  0  0  0
   -5.4547    2.8493    0.8113 H   0  0  0  0  0  0  0  0  0  0  0  0
    1.5949    0.3241    1.7901 H   0  0  0  0  0  0  0  0  0  0  0  0
    1.3402    0.1083   -2.5260 H   0  0  0  0  0  0  0  0  0  0  0  0
   -3.1572   -4.1804    0.3656 H   0  0  0  0  0  0  0  0  0  0  0  0
    3.7706    0.6288   -2.6777 H   0  0  0  0  0  0  0  0  0  0  0  0
    1.8296   -2.3409   -0.2168 H   0  0  0  0  0  0  0  0  0  0  0  0
    1.3944   -4.0263   -0.0691 H   0  0  0  0  0  0  0  0  0  0  0  0
    5.9835    1.1579   -1.2505 H   0  0  0  0  0  0  0  0  0  0  0  0
    6.4283    1.3528    1.4671 H   0  0  0  0  0  0  0  0  0  0  0  0
  1  2  1  0  0  0  0
  1  8  1  0  0  0  0
  1 13  1  0  0  0  0
  2 15  2  0  0  0  0
  3 13  2  0  0  0  0
  3 20  1  0  0  0  0
  4 17  1  0  0  0  0
  4 20  2  0  0  0  0
  5 21  1  0  0  0  0
  5 22  1  0  0  0  0
  5 23  1  0  0  0  0
  6 17  1  0  0  0  0
  6 38  1  0  0  0  0
  6 39  1  0  0  0  0
  7 21  2  0  0  0  0
  7 24  1  0  0  0  0
  8  9  1  0  0  0  0
  8 10  1  0  0  0  0
  8 25  1  0  0  0  0
  9 11  1  0  0  0  0
  9 26  1  0  0  0  0
  9 27  1  0  0  0  0
 10 12  1  0  0  0  0
 10 28  1  0  0  0  0
 10 29  1  0  0  0  0
 11 12  1  0  0  0  0
 11 30  1  0  0  0  0
 11 31  1  0  0  0  0
 12 32  1  0  0  0  0
 12 33  1  0  0  0  0
 13 14  1  0  0  0  0
 14 15  1  0  0  0  0
 14 17  2  0  0  0  0
 15 16  1  0  0  0  0
 16 18  2  0  0  0  0
 16 19  1  0  0  0  0
 18 21  1  0  0  0  0
 18 34  1  0  0  0  0
 19 22  2  0  0  0  0
 19 35  1  0  0  0  0
 20 36  1  0  0  0  0
 22 37  1  0  0  0  0
 23 24  2  0  0  0  0
 23 40  1  0  0  0  0
 24 41  1  0  0  0  0
M  END
> <PUBCHEM_COMPOUND_CID>
24905148

> <PUBCHEM_CONFORMER_RMSD>
0.6

> <PUBCHEM_CONFORMER_DIVERSEORDER>
1
4
15
6
13
11
14
5
12
9
8
3
2
10
7

> <PUBCHEM_MMFF94_PARTIAL_CHARGES>
27
1 0.31
13 0.11
15 0.24
16 0.05
17 0.41
18 -0.11
19 -0.15
2 -0.71
20 0.47
21 0.14
22 -0.18
23 -0.3
24 0.08
3 -0.57
34 0.15
35 0.15
36 0.15
37 0.15
38 0.4
39 0.4
4 -0.62
40 0.15
41 0.15
5 0.33
6 -0.9
7 -0.57
8 0.26

> <PUBCHEM_EFFECTIVE_ROTOR_COUNT>
3

> <PUBCHEM_PHARMACOPHORE_FEATURES>
11
1 2 acceptor
1 6 cation
1 6 donor
3 1 3 13 cation
3 3 4 20 cation
3 5 7 21 cation
5 1 2 13 14 15 rings
5 5 7 21 23 24 rings
5 8 9 10 11 12 rings
6 3 4 13 14 17 20 rings
6 5 16 18 19 21 22 rings

> <PUBCHEM_HEAVY_ATOM_COUNT>
24

> <PUBCHEM_ATOM_DEF_STEREO_COUNT>
0

> <PUBCHEM_ATOM_UDEF_STEREO_COUNT>
0

> <PUBCHEM_BOND_DEF_STEREO_COUNT>
0

> <PUBCHEM_BOND_UDEF_STEREO_COUNT>
0

> <PUBCHEM_ISOTOPIC_ATOM_COUNT>
0

> <PUBCHEM_COMPONENT_COUNT>
1

> <PUBCHEM_CACTVS_TAUTO_COUNT>
5

> <PUBCHEM_CONFORMER_ID>
017C05BC00000001

> <PUBCHEM_MMFF94_ENERGY>
56.3417

> <PUBCHEM_FEATURE_SELFOVERLAP>
56.217

> <PUBCHEM_SHAPE_FINGERPRINT>
10319926 262 18270102631236512152
10411042 1 17689717880051643683
105312 117 18409729534562694733
1100329 8 18122908624886054762
11049842 53 18189921771840593110
11582403 64 17558799889514290812
11725454 13 17774424036769164740
12107183 9 18262507080125571274
12236239 1 17532082976988729646
12390115 104 18342187647870536617
12403259 118 17604158047249072533
12422481 6 17678445377831956776
12500047 106 18411979182908572030
12623949 98 12902133954206976808
12788726 201 17973458885548818350
12930653 34 18411701006055911775
13140716 1 17905053899736046027
13583140 156 17988638657820552566
13878862 14 17398104960057902093
13965767 371 18042401331338316324
14178000 22 18409444765509260429
14178342 30 18335423499386043358
14294032 229 18408609154559122581
14508225 48 17909819174693776191
15042514 8 18120380014910164315
15230672 131 18336270034279748182
15842332 3 17532665726672606484
16752209 62 18265046006265181683
1741750 31 18411420592146554577
17913733 40 18197236762702214553
17980427 26 18053088532941907591
19784866 34 18269838610469204809
20554085 129 18127947777223374097
21033648 29 18339646641896940912
21033650 10 18117864259548993596
21065201 7 18340777039224729998
21279426 13 18200605700858451646
212916 134 18411973642179558552
21304303 282 18196344044954324855
22182313 1 18200050506677217006
23557571 272 18200886174511657156
23559900 14 18272101474550577036
283562 15 18339075012431597867
3091708 16 9196908424568546083
469060 322 18336845177328130097
474 4 18123744258597523121
495365 180 18048316648456633277
5265222 85 18125453140908020526
5385378 56 18194690263322606321
57124632 79 18120930599451637209
59755656 520 18411138000314927277
633830 44 17915463783653949957
7808743 9 18336554897152010652
84936 182 17983292625827474721
9849439 229 18267022744037390817
9862522 239 17894902989112769781
9981440 41 18335702685672479145

> <PUBCHEM_SHAPE_MULTIPOLES>
459.04
10.26
3.96
1.24
7.8
3.32
0.16
-9.94
-1.42
-5.58
-0.34
0.81
-0.65
0.36

> <PUBCHEM_SHAPE_SELFOVERLAP>
1029.944

> <PUBCHEM_SHAPE_VOLUME>
240

> <PUBCHEM_COORDINATE_TYPE>
2
5
10

$$$$
