49830381
  -OEChem-10052115183D

 51 55  0     0  0  0  0  0  0999 V2000
    6.3521    1.4718    0.3509 S   0  0  0  0  0  0  0  0  0  0  0  0
   -2.4246   -1.1899    0.4322 O   0  0  0  0  0  0  0  0  0  0  0  0
   -1.6882    0.9818   -0.0482 N   0  0  0  0  0  0  0  0  0  0  0  0
    7.2801   -0.9851    0.0007 N   0  0  0  0  0  0  0  0  0  0  0  0
    5.7448   -2.8015   -0.4200 N   0  0  0  0  0  0  0  0  0  0  0  0
    3.4560   -2.5354   -0.7093 N   0  0  0  0  0  0  0  0  0  0  0  0
   -3.9529    0.5319    0.0216 N   0  0  0  0  0  0  0  0  0  0  0  0
    2.7565    3.0934   -0.4126 C   0  0  0  0  0  0  0  0  0  0  0  0
    4.0522    3.0522    0.4068 C   0  0  0  0  0  0  0  0  0  0  0  0
    3.9675    0.5138    0.1151 C   0  0  0  0  0  0  0  0  0  0  0  0
    1.9002    1.8675   -0.1659 C   0  0  0  0  0  0  0  0  0  0  0  0
    2.5005    0.6077    0.0821 C   0  0  0  0  0  0  0  0  0  0  0  0
    4.6716    1.6960    0.2811 C   0  0  0  0  0  0  0  0  0  0  0  0
    4.8628   -0.6071   -0.0513 C   0  0  0  0  0  0  0  0  0  0  0  0
    0.5041    1.9781   -0.2260 C   0  0  0  0  0  0  0  0  0  0  0  0
    1.6765   -0.4956    0.3309 C   0  0  0  0  0  0  0  0  0  0  0  0
    6.1885   -0.1997    0.0812 C   0  0  0  0  0  0  0  0  0  0  0  0
   -0.2989    0.8627   -0.0017 C   0  0  0  0  0  0  0  0  0  0  0  0
    0.2858   -0.3678    0.2846 C   0  0  0  0  0  0  0  0  0  0  0  0
    4.6838   -1.9707   -0.3264 C   0  0  0  0  0  0  0  0  0  0  0  0
    6.9651   -2.2651   -0.2477 C   0  0  0  0  0  0  0  0  0  0  0  0
   -2.6687   -0.0180    0.1640 C   0  0  0  0  0  0  0  0  0  0  0  0
   -5.2001   -0.1232    0.1521 C   0  0  0  0  0  0  0  0  0  0  0  0
   -7.6148   -0.0564    0.1026 C   0  0  0  0  0  0  0  0  0  0  0  0
   -6.3855    0.5902   -0.0263 C   0  0  0  0  0  0  0  0  0  0  0  0
   -8.8821    0.7061   -0.0881 C   0  0  0  0  0  0  0  0  0  0  0  0
   -5.2441   -1.4832    0.4593 C   0  0  0  0  0  0  0  0  0  0  0  0
   -7.6588   -1.4164    0.4098 C   0  0  0  0  0  0  0  0  0  0  0  0
   -6.4735   -2.1298    0.5879 C   0  0  0  0  0  0  0  0  0  0  0  0
   -9.3561    0.6916   -1.5393 C   0  0  0  0  0  0  0  0  0  0  0  0
    2.2067    4.0074   -0.1593 H   0  0  0  0  0  0  0  0  0  0  0  0
    2.9890    3.1332   -1.4846 H   0  0  0  0  0  0  0  0  0  0  0  0
    4.7273    3.8439    0.0630 H   0  0  0  0  0  0  0  0  0  0  0  0
    3.8306    3.2411    1.4650 H   0  0  0  0  0  0  0  0  0  0  0  0
    0.0493    2.9427   -0.4413 H   0  0  0  0  0  0  0  0  0  0  0  0
    2.0619   -1.4309    0.7151 H   0  0  0  0  0  0  0  0  0  0  0  0
   -0.2685   -1.2658    0.5188 H   0  0  0  0  0  0  0  0  0  0  0  0
   -2.0402    1.9121   -0.2602 H   0  0  0  0  0  0  0  0  0  0  0  0
    7.7994   -2.9534   -0.3227 H   0  0  0  0  0  0  0  0  0  0  0  0
    3.4563   -3.5221   -0.9374 H   0  0  0  0  0  0  0  0  0  0  0  0
    2.7668   -1.9531   -1.1627 H   0  0  0  0  0  0  0  0  0  0  0  0
   -4.0028    1.5223   -0.2033 H   0  0  0  0  0  0  0  0  0  0  0  0
   -6.3517    1.6503   -0.2677 H   0  0  0  0  0  0  0  0  0  0  0  0
   -8.7477    1.7444    0.2403 H   0  0  0  0  0  0  0  0  0  0  0  0
   -9.6684    0.2923    0.5555 H   0  0  0  0  0  0  0  0  0  0  0  0
   -4.3735   -2.1045    0.6123 H   0  0  0  0  0  0  0  0  0  0  0  0
   -8.6101   -1.9322    0.5111 H   0  0  0  0  0  0  0  0  0  0  0  0
   -6.5091   -3.1889    0.8266 H   0  0  0  0  0  0  0  0  0  0  0  0
   -9.5434   -0.3309   -1.8844 H   0  0  0  0  0  0  0  0  0  0  0  0
  -10.2862    1.2600   -1.6384 H   0  0  0  0  0  0  0  0  0  0  0  0
   -8.6102    1.1403   -2.2040 H   0  0  0  0  0  0  0  0  0  0  0  0
  1 13  1  0  0  0  0
  1 17  1  0  0  0  0
  2 22  2  0  0  0  0
  3 18  1  0  0  0  0
  3 22  1  0  0  0  0
  3 38  1  0  0  0  0
  4 17  2  0  0  0  0
  4 21  1  0  0  0  0
  5 20  1  0  0  0  0
  5 21  2  0  0  0  0
  6 20  1  0  0  0  0
  6 40  1  0  0  0  0
  6 41  1  0  0  0  0
  7 22  1  0  0  0  0
  7 23  1  0  0  0  0
  7 42  1  0  0  0  0
  8  9  1  0  0  0  0
  8 11  1  0  0  0  0
  8 31  1  0  0  0  0
  8 32  1  0  0  0  0
  9 13  1  0  0  0  0
  9 33  1  0  0  0  0
  9 34  1  0  0  0  0
 10 12  1  0  0  0  0
 10 13  2  0  0  0  0
 10 14  1  0  0  0  0
 11 12  2  0  0  0  0
 11 15  1  0  0  0  0
 12 16  1  0  0  0  0
 14 17  1  0  0  0  0
 14 20  2  0  0  0  0
 15 18  2  0  0  0  0
 15 35  1  0  0  0  0
 16 19  2  0  0  0  0
 16 36  1  0  0  0  0
 18 19  1  0  0  0  0
 19 37  1  0  0  0  0
 21 39  1  0  0  0  0
 23 25  1  0  0  0  0
 23 27  2  0  0  0  0
 24 25  2  0  0  0  0
 24 26  1  0  0  0  0
 24 28  1  0  0  0  0
 25 43  1  0  0  0  0
 26 30  1  0  0  0  0
 26 44  1  0  0  0  0
 26 45  1  0  0  0  0
 27 29  1  0  0  0  0
 27 46  1  0  0  0  0
 28 29  2  0  0  0  0
 28 47  1  0  0  0  0
 29 48  1  0  0  0  0
 30 49  1  0  0  0  0
 30 50  1  0  0  0  0
 30 51  1  0  0  0  0
M  END
> <PUBCHEM_COMPOUND_CID>
49830381

> <PUBCHEM_CONFORMER_RMSD>
0.8

> <PUBCHEM_CONFORMER_DIVERSEORDER>
1
17
16
7
14
27
20
4
22
13
30
18
9
15
21
12
5
19
23
3
29
28
8
2
26
24
10
11
25
6

> <PUBCHEM_MMFF94_PARTIAL_CHARGES>
40
1 -0.08
10 -0.05
11 -0.14
12 0.05
13 -0.14
15 -0.15
16 -0.15
17 0.3
18 0.12
19 -0.15
2 -0.57
20 0.41
21 0.47
22 0.69
23 0.12
24 -0.14
25 -0.15
26 0.14
27 -0.15
28 -0.15
29 -0.15
3 -0.55
35 0.15
36 0.15
37 0.15
38 0.37
39 0.15
4 -0.57
40 0.4
41 0.4
42 0.37
43 0.15
46 0.15
47 0.15
48 0.15
5 -0.62
6 -0.9
7 -0.55
8 0.14
9 0.18

> <PUBCHEM_EFFECTIVE_ROTOR_COUNT>
5.4

> <PUBCHEM_PHARMACOPHORE_FEATURES>
13
1 2 acceptor
1 3 donor
1 30 hydrophobe
1 4 acceptor
1 6 cation
1 6 donor
1 7 donor
3 4 5 21 cation
5 1 10 13 14 17 rings
6 11 12 15 16 18 19 rings
6 23 24 25 27 28 29 rings
6 4 5 14 17 20 21 rings
6 8 9 10 11 12 13 rings

> <PUBCHEM_HEAVY_ATOM_COUNT>
30

> <PUBCHEM_ATOM_DEF_STEREO_COUNT>
0

> <PUBCHEM_ATOM_UDEF_STEREO_COUNT>
0

> <PUBCHEM_BOND_DEF_STEREO_COUNT>
0

> <PUBCHEM_BOND_UDEF_STEREO_COUNT>
0

> <PUBCHEM_ISOTOPIC_ATOM_COUNT>
0

> <PUBCHEM_COMPONENT_COUNT>
1

> <PUBCHEM_CACTVS_TAUTO_COUNT>
12

> <PUBCHEM_CONFORMER_ID>
02F859ED00000001

> <PUBCHEM_MMFF94_ENERGY>
97.4707

> <PUBCHEM_FEATURE_SELFOVERLAP>
66.183

> <PUBCHEM_SHAPE_FINGERPRINT>
10 15 11455884763184692631
10316853 100 18408608080564461082
10411042 1 18267586802766763030
10533779 47 18336842931086894187
10580692 12 18410293614736079937
11315181 36 18272374200948060873
11409948 8 18270950286578474474
117089 54 17912939283909677374
11719270 70 18131634486840032399
11991303 11 13768214934353145081
12522641 24 17561075926287467944
13008946 170 18127122202710460400
13383665 225 17822025215341260476
13533116 47 18272089426492558976
13617811 41 16081370739178048870
13685833 64 18410294705066559130
13811026 1 18409163290612021773
13885169 127 18409166589753475505
14117953 113 18272940397475330214
14170010 4 18411699898513148352
14216079 64 18409729530415127894
14251764 18 17846782905804454049
14400156 413 18270389602765098449
14933364 13 18335420188541082641
15152005 77 17558831681200873014
15183329 4 18333449829270276755
15352257 5 18408324393331257907
15419008 47 17749102279887477357
15419008 91 18042387158405624125
15461852 350 16774074090865585117
15510794 2 18334297587717866635
16120349 18 18272645766238051953
19841028 212 18335419016094762850
20028762 73 18343586218182402918
20771845 140 16271923784090081646
21130935 74 18341054124702718379
21267235 1 18341335514017147774
21315763 28 18412545427513606481
21792934 111 18342729711324339584
22224240 67 12319735860630285037
23559900 14 18337951298145878209
23569943 247 18118686504984056786
249057 25 17917162649509973457
255183 451 18128546964422767102
28498 318 18408602548466625173
3004659 81 18187364341515456577
3103668 31 17823129035011274781
335352 9 18410014334281526644
3633792 109 18411700959580963401
4073 2 17968944235376595891
439807 62 18187646865097527722
46194498 28 17894629288443830332
465052 167 18272092686857663070
58083652 198 17203608225029837793
6441014 3 17332249697979638198
6691757 9 15913329130996465055
9831232 110 18334862718396511543
99344 41 18342457041442249855

> <PUBCHEM_SHAPE_MULTIPOLES>
590.46
27.61
2.91
0.77
49.23
0.03
0.11
-7.24
2.65
-5.25
0.22
0.71
0.01
1.89

> <PUBCHEM_SHAPE_SELFOVERLAP>
1301.487

> <PUBCHEM_SHAPE_VOLUME>
318.5

> <PUBCHEM_COORDINATE_TYPE>
2
5
10

$$$$
