135685787
  -OEChem-10052115143D

 35 37  0     0  0  0  0  0  0999 V2000
   -4.7822    2.4240    0.2821 O   0  0  0  0  0  0  0  0  0  0  0  0
    2.0838   -3.2761   -0.0347 O   0  0  0  0  0  0  0  0  0  0  0  0
   -1.3146   -2.9898    0.0317 N   0  0  0  0  0  0  0  0  0  0  0  0
   -0.2092   -3.7788    0.0364 N   0  0  0  0  0  0  0  0  0  0  0  0
    1.1968   -0.4603   -0.0222 N   0  0  0  0  0  0  0  0  0  0  0  0
    2.4223   -0.7125   -0.0617 N   0  0  0  0  0  0  0  0  0  0  0  0
    4.2875    2.2405    1.1337 N   0  0  0  0  0  0  0  0  0  0  0  0
   -0.9414   -1.6696    0.0479 C   0  0  0  0  0  0  0  0  0  0  0  0
   -1.9438   -0.5994    0.1082 C   0  0  0  0  0  0  0  0  0  0  0  0
    0.3971   -1.5529    0.0045 C   0  0  0  0  0  0  0  0  0  0  0  0
   -1.9435    0.2970    1.1768 C   0  0  0  0  0  0  0  0  0  0  0  0
   -2.8977   -0.4796   -0.9024 C   0  0  0  0  0  0  0  0  0  0  0  0
    0.9075   -2.9581   -0.0032 C   0  0  0  0  0  0  0  0  0  0  0  0
   -2.8971    1.3132    1.2351 C   0  0  0  0  0  0  0  0  0  0  0  0
   -3.8516    0.5364   -0.8442 C   0  0  0  0  0  0  0  0  0  0  0  0
   -3.8512    1.4328    0.2245 C   0  0  0  0  0  0  0  0  0  0  0  0
    3.1613    0.4832   -0.0864 C   0  0  0  0  0  0  0  0  0  0  0  0
    3.4996    1.0919   -1.2900 C   0  0  0  0  0  0  0  0  0  0  0  0
   -5.7282    2.4886   -0.7844 C   0  0  0  0  0  0  0  0  0  0  0  0
    3.5755    1.0922    1.0872 C   0  0  0  0  0  0  0  0  0  0  0  0
    4.2314    2.2742   -1.2831 C   0  0  0  0  0  0  0  0  0  0  0  0
    4.5977    2.8030   -0.0559 C   0  0  0  0  0  0  0  0  0  0  0  0
   -2.2193   -3.3205    0.3362 H   0  0  0  0  0  0  0  0  0  0  0  0
   -1.2101    0.2169    1.9757 H   0  0  0  0  0  0  0  0  0  0  0  0
   -2.9102   -1.1688   -1.7435 H   0  0  0  0  0  0  0  0  0  0  0  0
   -0.2814   -4.7874    0.0385 H   0  0  0  0  0  0  0  0  0  0  0  0
   -2.8926    2.0080    2.0704 H   0  0  0  0  0  0  0  0  0  0  0  0
   -4.5629    0.5722   -1.6622 H   0  0  0  0  0  0  0  0  0  0  0  0
    3.1980    0.6521   -2.2368 H   0  0  0  0  0  0  0  0  0  0  0  0
   -5.2401    2.6927   -1.7434 H   0  0  0  0  0  0  0  0  0  0  0  0
   -6.3558    1.5916   -0.8204 H   0  0  0  0  0  0  0  0  0  0  0  0
   -6.3916    3.3346   -0.5770 H   0  0  0  0  0  0  0  0  0  0  0  0
    3.3415    0.6631    2.0568 H   0  0  0  0  0  0  0  0  0  0  0  0
    4.5064    2.7661   -2.2090 H   0  0  0  0  0  0  0  0  0  0  0  0
    5.1691    3.7235    0.0038 H   0  0  0  0  0  0  0  0  0  0  0  0
  1 16  1  0  0  0  0
  1 19  1  0  0  0  0
  2 13  2  0  0  0  0
  3  4  1  0  0  0  0
  3  8  1  0  0  0  0
  3 23  1  0  0  0  0
  4 13  1  0  0  0  0
  4 26  1  0  0  0  0
  5  6  2  0  0  0  0
  5 10  1  0  0  0  0
  6 17  1  0  0  0  0
  7 20  1  0  0  0  0
  7 22  2  0  0  0  0
  8  9  1  0  0  0  0
  8 10  2  0  0  0  0
  9 11  2  0  0  0  0
  9 12  1  0  0  0  0
 10 13  1  0  0  0  0
 11 14  1  0  0  0  0
 11 24  1  0  0  0  0
 12 15  2  0  0  0  0
 12 25  1  0  0  0  0
 14 16  2  0  0  0  0
 14 27  1  0  0  0  0
 15 16  1  0  0  0  0
 15 28  1  0  0  0  0
 17 18  1  0  0  0  0
 17 20  2  0  0  0  0
 18 21  2  0  0  0  0
 18 29  1  0  0  0  0
 19 30  1  0  0  0  0
 19 31  1  0  0  0  0
 19 32  1  0  0  0  0
 20 33  1  0  0  0  0
 21 22  1  0  0  0  0
 21 34  1  0  0  0  0
 22 35  1  0  0  0  0
M  END
> <PUBCHEM_COMPOUND_CID>
135685787

> <PUBCHEM_CONFORMER_RMSD>
0.6

> <PUBCHEM_CONFORMER_DIVERSEORDER>
2
19
7
23
4
8
24
20
3
27
1
11
28
26
31
17
13
32
12
6
25
10
5
18
14
29
21
9
16
30
22
15

> <PUBCHEM_MMFF94_PARTIAL_CHARGES>
32
1 -0.36
10 0.19
11 -0.15
12 -0.15
13 0.62
14 -0.15
15 -0.15
16 0.08
17 0.18
18 -0.15
19 0.28
2 -0.57
20 0.16
21 -0.15
22 0.16
23 0.4
24 0.15
25 0.15
26 0.37
27 0.15
28 0.15
29 0.15
3 -0.52
33 0.15
34 0.15
35 0.15
4 -0.41
5 -0.17
6 -0.18
7 -0.62
8 0.07
9 0.03

> <PUBCHEM_EFFECTIVE_ROTOR_COUNT>
4

> <PUBCHEM_PHARMACOPHORE_FEATURES>
8
1 1 acceptor
1 2 acceptor
1 3 donor
1 4 donor
1 7 acceptor
5 3 4 8 10 13 rings
6 7 17 18 20 21 22 rings
6 9 11 12 14 15 16 rings

> <PUBCHEM_HEAVY_ATOM_COUNT>
22

> <PUBCHEM_ATOM_DEF_STEREO_COUNT>
0

> <PUBCHEM_ATOM_UDEF_STEREO_COUNT>
0

> <PUBCHEM_BOND_DEF_STEREO_COUNT>
0

> <PUBCHEM_BOND_UDEF_STEREO_COUNT>
0

> <PUBCHEM_ISOTOPIC_ATOM_COUNT>
0

> <PUBCHEM_COMPONENT_COUNT>
1

> <PUBCHEM_CACTVS_TAUTO_COUNT>
-1

> <PUBCHEM_CONFORMER_ID>
0816669B00000002

> <PUBCHEM_MMFF94_ENERGY>
82.3291

> <PUBCHEM_FEATURE_SELFOVERLAP>
42.202

> <PUBCHEM_SHAPE_FINGERPRINT>
10498660 4 18272092720542798240
10615611 76 17242465055812443204
10928967 22 9583524234592067436
10937287 8 18410576201359863631
11370993 144 13913137142436138372
12107183 9 18335404787173319360
12173636 292 18267585899916581774
12403259 327 15864081969968698209
12633257 1 15647061494465109413
12769317 202 18341320090141384521
12788726 201 17829881388987954458
13134695 92 17685496446758661311
13140716 1 18335419032609837562
13583140 156 17023457689355653008
13590594 115 17618793452867241930
13878862 14 17973425630234523557
13965767 371 18114169844429099404
14123255 52 18411139142728683608
14142880 1 18116145748196431135
14251764 75 18410866481115360425
14468879 13 18260275144045279441
14767858 380 18197479918060045975
14848178 96 18412547591433597856
15342168 16 18335140865137213829
15352361 1 9295290534092859773
16988056 13 17832699072101120940
1741750 31 18338799039054382978
17834072 32 18336549403630148764
17980427 23 17912048734739943674
1798214 55 18410859875523671960
19784866 34 18412822473967617281
20510252 161 18053671557641333914
21304303 282 17770750658810660326
21860390 5 17984706619224080542
2255824 54 18124597479273283951
22950370 63 9367349274939621325
235170 7 15841556300967624668
23559900 14 18124590891041235643
283562 15 18048313637226395979
341906 21 18196645422983635984
394222 165 18262227833609685619
4028521 119 18059297659666323216
43658 37 18411698751535080843
469060 322 17975432509321733571
474 4 18337953377062861107
5048184 11 18410298042219575644
6034566 193 18189631586369752589
6327066 14 18335137626305117972
6328613 192 18336269050700361412
633830 44 18342737390498758311
67856867 119 18267293253830037395
7064713 232 18262232330582842932
7808743 9 18192437587546907284
84936 182 18272366417222349064
9981440 41 18338791320676717746

> <PUBCHEM_SHAPE_MULTIPOLES>
416.11
10.63
4.26
1.11
1.75
3.09
0.03
-14.05
-1.37
-0.75
-0.18
-0.25
-0.63
-0.03

> <PUBCHEM_SHAPE_SELFOVERLAP>
911.662

> <PUBCHEM_SHAPE_VOLUME>
225.4

> <PUBCHEM_COORDINATE_TYPE>
2
5
10

$$$$
