49830905
  -OEChem-10062121533D

 42 44  0     0  0  0  0  0  0999 V2000
    7.1459    0.6259   -0.0437 S   0  0  0  0  0  0  0  0  0  0  0  0
    6.0524    2.9132    0.6045 F   0  0  0  0  0  0  0  0  0  0  0  0
    7.8743    3.0717   -0.5720 F   0  0  0  0  0  0  0  0  0  0  0  0
    0.7503   -1.4440   -1.6263 O   0  0  0  0  0  0  0  0  0  0  0  0
    1.7048   -1.8144    0.4869 N   0  0  0  0  0  0  0  0  0  0  0  0
   -7.0616    1.6845    1.2645 N   0  0  0  0  0  0  0  0  0  0  0  0
   -1.7653   -1.7470    0.0532 C   0  0  0  0  0  0  0  0  0  0  0  0
   -0.5340   -2.5880    0.0620 C   0  0  0  0  0  0  0  0  0  0  0  0
   -4.0693   -0.1741    0.0372 C   0  0  0  0  0  0  0  0  0  0  0  0
   -2.6024   -1.7476   -1.0625 C   0  0  0  0  0  0  0  0  0  0  0  0
   -2.0801   -0.9598    1.1610 C   0  0  0  0  0  0  0  0  0  0  0  0
   -3.7543   -0.9612   -1.0706 C   0  0  0  0  0  0  0  0  0  0  0  0
   -3.2321   -0.1734    1.1529 C   0  0  0  0  0  0  0  0  0  0  0  0
    0.7047   -1.8789   -0.4801 C   0  0  0  0  0  0  0  0  0  0  0  0
   -5.2642    0.6420    0.0286 C   0  0  0  0  0  0  0  0  0  0  0  0
    2.9906   -1.2365    0.3614 C   0  0  0  0  0  0  0  0  0  0  0  0
    3.8746   -1.2615    1.4401 C   0  0  0  0  0  0  0  0  0  0  0  0
    3.3741   -0.6423   -0.8409 C   0  0  0  0  0  0  0  0  0  0  0  0
   -5.7688    1.1621   -1.1581 C   0  0  0  0  0  0  0  0  0  0  0  0
   -5.9416    0.9300    1.2026 C   0  0  0  0  0  0  0  0  0  0  0  0
    5.5252   -0.0978    0.1144 C   0  0  0  0  0  0  0  0  0  0  0  0
    5.1419   -0.6922    1.3167 C   0  0  0  0  0  0  0  0  0  0  0  0
    4.6413   -0.0729   -0.9644 C   0  0  0  0  0  0  0  0  0  0  0  0
   -6.9189    1.9431   -1.1349 C   0  0  0  0  0  0  0  0  0  0  0  0
   -7.5223    2.1727    0.0910 C   0  0  0  0  0  0  0  0  0  0  0  0
    6.7347    2.3464   -0.4233 C   0  0  0  0  0  0  0  0  0  0  0  0
   -0.6836   -3.4831   -0.5563 H   0  0  0  0  0  0  0  0  0  0  0  0
   -0.3634   -2.9738    1.0746 H   0  0  0  0  0  0  0  0  0  0  0  0
   -2.3701   -2.3598   -1.9301 H   0  0  0  0  0  0  0  0  0  0  0  0
   -1.4311   -0.9453    2.0327 H   0  0  0  0  0  0  0  0  0  0  0  0
   -4.3910   -1.0131   -1.9495 H   0  0  0  0  0  0  0  0  0  0  0  0
   -3.4240    0.4448    2.0256 H   0  0  0  0  0  0  0  0  0  0  0  0
    1.5122   -2.2216    1.3991 H   0  0  0  0  0  0  0  0  0  0  0  0
    3.5883   -1.7214    2.3825 H   0  0  0  0  0  0  0  0  0  0  0  0
    2.7475   -0.5857   -1.7197 H   0  0  0  0  0  0  0  0  0  0  0  0
   -5.2832    1.0066   -2.1174 H   0  0  0  0  0  0  0  0  0  0  0  0
   -5.6362    0.5443    2.1702 H   0  0  0  0  0  0  0  0  0  0  0  0
    5.8172   -0.7213    2.1683 H   0  0  0  0  0  0  0  0  0  0  0  0
    4.9225    0.3771   -1.9133 H   0  0  0  0  0  0  0  0  0  0  0  0
   -7.3269    2.3644   -2.0466 H   0  0  0  0  0  0  0  0  0  0  0  0
   -8.4208    2.7767    0.1632 H   0  0  0  0  0  0  0  0  0  0  0  0
    6.1461    2.4418   -1.3392 H   0  0  0  0  0  0  0  0  0  0  0  0
  1 21  1  0  0  0  0
  1 26  1  0  0  0  0
  2 26  1  0  0  0  0
  3 26  1  0  0  0  0
  4 14  2  0  0  0  0
  5 14  1  0  0  0  0
  5 16  1  0  0  0  0
  5 33  1  0  0  0  0
  6 20  1  0  0  0  0
  6 25  2  0  0  0  0
  7  8  1  0  0  0  0
  7 10  2  0  0  0  0
  7 11  1  0  0  0  0
  8 14  1  0  0  0  0
  8 27  1  0  0  0  0
  8 28  1  0  0  0  0
  9 12  2  0  0  0  0
  9 13  1  0  0  0  0
  9 15  1  0  0  0  0
 10 12  1  0  0  0  0
 10 29  1  0  0  0  0
 11 13  2  0  0  0  0
 11 30  1  0  0  0  0
 12 31  1  0  0  0  0
 13 32  1  0  0  0  0
 15 19  1  0  0  0  0
 15 20  2  0  0  0  0
 16 17  2  0  0  0  0
 16 18  1  0  0  0  0
 17 22  1  0  0  0  0
 17 34  1  0  0  0  0
 18 23  2  0  0  0  0
 18 35  1  0  0  0  0
 19 24  2  0  0  0  0
 19 36  1  0  0  0  0
 20 37  1  0  0  0  0
 21 22  2  0  0  0  0
 21 23  1  0  0  0  0
 22 38  1  0  0  0  0
 23 39  1  0  0  0  0
 24 25  1  0  0  0  0
 24 40  1  0  0  0  0
 25 41  1  0  0  0  0
 26 42  1  0  0  0  0
M  END
> <PUBCHEM_COMPOUND_CID>
49830905

> <PUBCHEM_CONFORMER_RMSD>
0.8

> <PUBCHEM_CONFORMER_DIVERSEORDER>
4
97
1
92
11
106
59
104
62
24
78
16
30
61
72
49
100
22
44
32
5
52
28
60
80
79
26
17
47
29
18
101
40
58
6
91
87
46
56
84
35
102
81
9
31
25
64
65
14
54
85
39
36
27
71
82
94
42
70
74
69
10
8
89
95
76
38
75
41
68
21
55
57
98
51
37
63
3
66
77
19
34
48
105
93
50
12
2
43
99
33
96
53
23
103
13
83
45
86
73
15
90
88
7
67
20

> <PUBCHEM_MMFF94_PARTIAL_CHARGES>
37
1 -0.33
10 -0.15
11 -0.15
12 -0.15
13 -0.15
14 0.57
16 0.12
17 -0.15
18 -0.15
19 -0.15
2 -0.34
20 0.16
21 0.1
22 -0.15
23 -0.15
24 -0.15
25 0.16
26 0.91
29 0.15
3 -0.34
30 0.15
31 0.15
32 0.15
33 0.37
34 0.15
35 0.15
36 0.15
37 0.15
38 0.15
39 0.15
4 -0.57
40 0.15
41 0.15
5 -0.55
6 -0.62
7 -0.14
8 0.2

> <PUBCHEM_EFFECTIVE_ROTOR_COUNT>
7

> <PUBCHEM_PHARMACOPHORE_FEATURES>
6
1 4 acceptor
1 5 donor
1 6 acceptor
6 16 17 18 21 22 23 rings
6 6 15 19 20 24 25 rings
6 7 9 10 11 12 13 rings

> <PUBCHEM_HEAVY_ATOM_COUNT>
26

> <PUBCHEM_ATOM_DEF_STEREO_COUNT>
0

> <PUBCHEM_ATOM_UDEF_STEREO_COUNT>
0

> <PUBCHEM_BOND_DEF_STEREO_COUNT>
0

> <PUBCHEM_BOND_UDEF_STEREO_COUNT>
0

> <PUBCHEM_ISOTOPIC_ATOM_COUNT>
0

> <PUBCHEM_COMPONENT_COUNT>
1

> <PUBCHEM_CACTVS_TAUTO_COUNT>
2

> <PUBCHEM_CONFORMER_ID>
02F85BF900000004

> <PUBCHEM_MMFF94_ENERGY>
76.9868

> <PUBCHEM_FEATURE_SELFOVERLAP>
30.447

> <PUBCHEM_SHAPE_FINGERPRINT>
10 15 17749676203698051523
10280341 67 18056750143751558696
10319926 262 15575005997025355959
10533779 1 18339349860057973656
10554248 39 18129935676945509990
10740516 88 10954275417703113360
10906281 52 18130795529614102275
10939801 23 18260269663825739292
11973863 73 8790609247595035205
12596602 18 17967250896969741090
12760667 363 8934990474445689399
12895837 130 18343020034133704855
13668630 136 11600006544183021206
13673619 4 7925624510169239639
13685833 64 8214129768717696979
13782708 43 10015862080926044587
14251757 52 18408603656431232536
14251764 30 8358255938576269662
14347424 109 17749944458739318282
14359421 15 12607409858123920765
14394314 77 18408324397558121373
14428016 167 8502361214575215777
14617042 71 18270686360321540481
14931854 50 16773800272755305826
15064981 194 17489309745812234715
15183329 4 18131347488799012801
15188451 53 11530485540661271859
15510800 12 10879989198581840885
15519825 34 15792307011028297017
1577012 14 18408317787624174830
17134984 74 13326850020471535580
1768 4 18412555305959558273
19427546 20 18201994478481288135
19958102 18 13110968647593934772
20028762 73 9150907074614091764
20526848 3 18412827975414385610
20567600 247 9727643799818904740
20691028 202 18337107968754205160
21033648 29 17894918442209973490
21130935 74 17749107777029086147
21298829 104 18410293618324341133
21307412 95 12751226014045092605
21344244 181 11815886877388932508
21521239 73 12751240307527156094
21637258 2 8358248246833564063
22122407 14 18260558822002816729
23559900 14 15553861353362596547
270888 7 18410293618371527798
2748736 6 18341890762561710673
2835820 40 18121221145975426900
2838139 119 18337944598313017703
3004659 81 12751230385403986062
312425 54 16081091467477434915
3383291 50 8358248246580733317
3472631 163 18272369771592164391
3627633 1 17762056940397616147
393628 194 18343306938197971657
397830 11 18040730134553509195
406291 66 9439412315524043100
465052 167 8790594931620192018
474113 269 16199595659438480238
5104073 3 17603578677772718690
54039377 194 9079122168070522520
543368 44 18130505224854323009
5470011 282 12247671690933928994
5718773 13 9583525308818220092
59682541 35 17968106305154355601
59682541 52 16558756655140416670
6327066 14 18413388743530000918
6328613 192 18413108394251414008
6712543 237 15430034344909319513
6898599 12 17988356082921297327
7970288 3 9295287239963492684
96874 4 8502368919160605569
999808 66 10159693616825066901

> <PUBCHEM_SHAPE_MULTIPOLES>
508.54
24.11
2.9
1.36
4.47
1.49
0.06
25.64
0.69
2.38
-0.27
-0.71
-0.13
-0.89

> <PUBCHEM_SHAPE_SELFOVERLAP>
1085.342

> <PUBCHEM_SHAPE_VOLUME>
285.8

> <PUBCHEM_COORDINATE_TYPE>
2
5
10

$$$$
