16050452
  -OEChem-10052115183D

 48 52  0     0  0  0  0  0  0999 V2000
   -0.2192    1.5511   -2.0823 F   0  0  0  0  0  0  0  0  0  0  0  0
   -0.5623    5.8381   -0.1169 F   0  0  0  0  0  0  0  0  0  0  0  0
    5.5269   -2.3974   -1.0704 O   0  0  0  0  0  0  0  0  0  0  0  0
    3.4948   -0.7764    0.6725 N   0  0  0  0  0  0  0  0  0  0  0  0
    1.1516   -0.6662    0.6188 N   0  0  0  0  0  0  0  0  0  0  0  0
    2.3534   -0.4472    2.6961 N   0  0  0  0  0  0  0  0  0  0  0  0
   -1.8864   -1.7068    0.2353 N   0  0  0  0  0  0  0  0  0  0  0  0
   -2.9964   -0.0640   -0.7898 N   0  0  0  0  0  0  0  0  0  0  0  0
   -3.6904   -3.6308   -0.6600 N   0  0  0  0  0  0  0  0  0  0  0  0
    5.0140   -1.0791   -1.1813 C   0  0  0  0  0  0  0  0  0  0  0  0
    5.9209    0.0627   -0.9056 C   0  0  0  0  0  0  0  0  0  0  0  0
    5.4736   -0.2292   -2.3079 C   0  0  0  0  0  0  0  0  0  0  0  0
    3.5666   -0.9701   -0.7418 C   0  0  0  0  0  0  0  0  0  0  0  0
    2.2730   -0.6224    1.3633 C   0  0  0  0  0  0  0  0  0  0  0  0
    0.0083   -0.5153    1.3140 C   0  0  0  0  0  0  0  0  0  0  0  0
   -1.1928   -0.5631    0.5117 C   0  0  0  0  0  0  0  0  0  0  0  0
   -1.8960    0.4349   -0.1306 C   0  0  0  0  0  0  0  0  0  0  0  0
   -2.9573   -1.3524   -0.5473 C   0  0  0  0  0  0  0  0  0  0  0  0
   -0.0507   -0.3291    2.6767 C   0  0  0  0  0  0  0  0  0  0  0  0
    1.1678   -0.3033    3.3239 C   0  0  0  0  0  0  0  0  0  0  0  0
   -1.5509    1.8253   -0.1305 C   0  0  0  0  0  0  0  0  0  0  0  0
   -3.8703   -2.3785   -0.9914 C   0  0  0  0  0  0  0  0  0  0  0  0
   -1.6986   -3.0305    0.5842 C   0  0  0  0  0  0  0  0  0  0  0  0
   -2.5908   -3.9330    0.1333 C   0  0  0  0  0  0  0  0  0  0  0  0
   -0.7123    2.3443   -1.1199 C   0  0  0  0  0  0  0  0  0  0  0  0
   -2.0540    2.6680    0.8632 C   0  0  0  0  0  0  0  0  0  0  0  0
   -5.0405   -1.9888   -1.8484 C   0  0  0  0  0  0  0  0  0  0  0  0
   -0.3787    3.6988   -1.1152 C   0  0  0  0  0  0  0  0  0  0  0  0
   -1.7205    4.0223    0.8678 C   0  0  0  0  0  0  0  0  0  0  0  0
   -0.8828    4.5378   -0.1213 C   0  0  0  0  0  0  0  0  0  0  0  0
    6.9528   -0.1499   -0.6528 H   0  0  0  0  0  0  0  0  0  0  0  0
    5.5263    0.9548   -0.4343 H   0  0  0  0  0  0  0  0  0  0  0  0
    4.7805    0.4644   -2.7681 H   0  0  0  0  0  0  0  0  0  0  0  0
    6.2067   -0.6375   -2.9935 H   0  0  0  0  0  0  0  0  0  0  0  0
    3.0807   -0.1313   -1.2558 H   0  0  0  0  0  0  0  0  0  0  0  0
    3.0328   -1.8820   -1.0360 H   0  0  0  0  0  0  0  0  0  0  0  0
    5.1314   -2.9848   -1.7366 H   0  0  0  0  0  0  0  0  0  0  0  0
    4.3361   -0.7600    1.2378 H   0  0  0  0  0  0  0  0  0  0  0  0
   -0.9808   -0.2093    3.2178 H   0  0  0  0  0  0  0  0  0  0  0  0
    1.2262   -0.1615    4.3977 H   0  0  0  0  0  0  0  0  0  0  0  0
   -0.8500   -3.2968    1.2011 H   0  0  0  0  0  0  0  0  0  0  0  0
   -2.4755   -4.9814    0.3867 H   0  0  0  0  0  0  0  0  0  0  0  0
   -2.7082    2.2827    1.6421 H   0  0  0  0  0  0  0  0  0  0  0  0
   -4.6816   -1.5241   -2.7712 H   0  0  0  0  0  0  0  0  0  0  0  0
   -5.6392   -2.8679   -2.1025 H   0  0  0  0  0  0  0  0  0  0  0  0
   -5.6691   -1.2742   -1.3093 H   0  0  0  0  0  0  0  0  0  0  0  0
    0.2737    4.1001   -1.8850 H   0  0  0  0  0  0  0  0  0  0  0  0
   -2.1125    4.6759    1.6415 H   0  0  0  0  0  0  0  0  0  0  0  0
  1 25  1  0  0  0  0
  2 30  1  0  0  0  0
  3 10  1  0  0  0  0
  3 37  1  0  0  0  0
  4 13  1  0  0  0  0
  4 14  1  0  0  0  0
  4 38  1  0  0  0  0
  5 14  1  0  0  0  0
  5 15  2  0  0  0  0
  6 14  2  0  0  0  0
  6 20  1  0  0  0  0
  7 16  1  0  0  0  0
  7 18  1  0  0  0  0
  7 23  1  0  0  0  0
  8 17  1  0  0  0  0
  8 18  2  0  0  0  0
  9 22  2  0  0  0  0
  9 24  1  0  0  0  0
 10 11  1  0  0  0  0
 10 12  1  0  0  0  0
 10 13  1  0  0  0  0
 11 12  1  0  0  0  0
 11 31  1  0  0  0  0
 11 32  1  0  0  0  0
 12 33  1  0  0  0  0
 12 34  1  0  0  0  0
 13 35  1  0  0  0  0
 13 36  1  0  0  0  0
 15 16  1  0  0  0  0
 15 19  1  0  0  0  0
 16 17  2  0  0  0  0
 17 21  1  0  0  0  0
 18 22  1  0  0  0  0
 19 20  2  0  0  0  0
 19 39  1  0  0  0  0
 20 40  1  0  0  0  0
 21 25  2  0  0  0  0
 21 26  1  0  0  0  0
 22 27  1  0  0  0  0
 23 24  2  0  0  0  0
 23 41  1  0  0  0  0
 24 42  1  0  0  0  0
 25 28  1  0  0  0  0
 26 29  2  0  0  0  0
 26 43  1  0  0  0  0
 27 44  1  0  0  0  0
 27 45  1  0  0  0  0
 27 46  1  0  0  0  0
 28 30  2  0  0  0  0
 28 47  1  0  0  0  0
 29 30  1  0  0  0  0
 29 48  1  0  0  0  0
M  END
> <PUBCHEM_COMPOUND_CID>
16050452

> <PUBCHEM_CONFORMER_RMSD>
0.8

> <PUBCHEM_CONFORMER_DIVERSEORDER>
1
102
85
126
15
37
110
34
108
23
17
119
45
43
28
75
111
51
125
46
42
19
10
82
87
9
25
80
86
20
27
22
48
12
84
44
73
122
41
103
109
76
77
101
66
89
95
62
65
112
104
94
107
98
123
35
16
13
40
121
90
57
33
78
106
83
105
69
14
92
56
99
36
60
114
100
47
67
81
59
52
113
64
32
61
70
58
71
4
117
38
124
120
50
21
49
91
96
39
74
26
7
63
118
53
55
29
116
31
97
88
30
2
54
93
24
68
8
115
79
6
3
11
72
5
18

> <PUBCHEM_MMFF94_PARTIAL_CHARGES>
43
1 -0.19
10 0.05
11 -0.2
12 -0.2
13 0.46
14 0.72
15 0.36
16 -0.2
17 0.17
18 0.1
19 -0.15
2 -0.19
20 0.16
21 0.05
22 0.47
23 -0.18
24 0.02
25 0.19
26 -0.15
27 0.06
28 -0.15
29 -0.15
3 -0.55
30 0.19
31 0.1
32 0.1
33 0.1
34 0.1
37 0.4
38 0.4
39 0.15
4 -0.87
40 0.15
41 0.15
42 0.15
43 0.15
47 0.15
48 0.15
5 -0.62
6 -0.62
7 0.33
8 -0.57
9 -0.62

> <PUBCHEM_EFFECTIVE_ROTOR_COUNT>
5.6

> <PUBCHEM_PHARMACOPHORE_FEATURES>
11
1 3 acceptor
1 3 donor
1 4 donor
1 5 acceptor
1 9 acceptor
3 7 8 18 cation
4 4 5 6 14 cation
5 7 8 16 17 18 rings
6 21 25 26 28 29 30 rings
6 5 6 14 15 19 20 rings
6 7 9 18 22 23 24 rings

> <PUBCHEM_HEAVY_ATOM_COUNT>
30

> <PUBCHEM_ATOM_DEF_STEREO_COUNT>
0

> <PUBCHEM_ATOM_UDEF_STEREO_COUNT>
0

> <PUBCHEM_BOND_DEF_STEREO_COUNT>
0

> <PUBCHEM_BOND_UDEF_STEREO_COUNT>
0

> <PUBCHEM_ISOTOPIC_ATOM_COUNT>
0

> <PUBCHEM_COMPONENT_COUNT>
1

> <PUBCHEM_CACTVS_TAUTO_COUNT>
3

> <PUBCHEM_CONFORMER_ID>
00F4E91400000001

> <PUBCHEM_MMFF94_ENERGY>
87.084

> <PUBCHEM_FEATURE_SELFOVERLAP>
55.94

> <PUBCHEM_SHAPE_FINGERPRINT>
10165383 225 17769102241661699281
11049842 53 17834098755041534762
11445158 3 16687720409618765786
11477941 20 18339939207285909796
11488393 25 17183073977175741170
11607047 141 17762644054654508627
11607047 403 17405180347283622201
12788726 201 18261385616218545747
131258 43 17771355449970981909
13757389 114 18270132205928027349
13761468 95 17318744452694676788
14022347 108 18265592425401262115
14713325 29 18118143397457321378
14910302 57 18272645706657233378
14950920 106 9582661002912263078
14955137 171 18336278928718505987
151778 21 17328868695048418488
15324884 4 17914587666144374955
15463212 79 18190747427504898778
15475509 8 18343014506975336567
15664445 248 18121482803185894186
15842332 3 17752192908299099770
16991981 162 18196673812696610024
20600515 1 18123157304024418475
20642791 239 17603861256328573021
20693207 138 17846208947881807186
21033650 10 18190191101066183834
21120745 212 18340781402284093037
21756936 100 17388561327871167552
22907989 373 18191851358416567783
23557571 272 18268690848914581608
23559900 14 18123460846469820863
24893989 43 16326448643084540877
312425 83 18122363298100801438
350125 39 17331933060236147313
3610482 184 17825984479909021486
4280585 95 18265604558646741610
531348 171 18192730947125472118
621550 5 17917993922785527506
6786 2 17622740712727974569
7399639 24 18058434573831076336

> <PUBCHEM_SHAPE_MULTIPOLES>
567.08
9.32
5.92
2.4
14.78
8.23
1.62
-9.71
-7.39
-6.38
-1.14
1.65
-0.41
-0.69

> <PUBCHEM_SHAPE_SELFOVERLAP>
1260.344

> <PUBCHEM_SHAPE_VOLUME>
304.8

> <PUBCHEM_COORDINATE_TYPE>
2
5
10

$$$$
