5330437
  -OEChem-10052115173D

 64 68  0     0  0  0  0  0  0999 V2000
    4.3037   -1.7534    3.3521 Cl  0  0  0  0  0  0  0  0  0  0  0  0
    6.2945   -4.3150   -0.9256 Cl  0  0  0  0  0  0  0  0  0  0  0  0
   -8.0839   -1.8081    1.8575 O   0  0  0  0  0  0  0  0  0  0  0  0
   -4.5183    0.5852   -1.4438 O   0  0  0  0  0  0  0  0  0  0  0  0
   -3.5480   -1.7328   -0.2610 O   0  0  0  0  0  0  0  0  0  0  0  0
    5.2253   -1.9568   -2.4515 O   0  0  0  0  0  0  0  0  0  0  0  0
   -6.9334   -0.1819   -0.1757 N   0  0  0  0  0  0  0  0  0  0  0  0
    3.4368    0.3581    1.3401 N   0  0  0  0  0  0  0  0  0  0  0  0
    1.8558    3.8044   -0.4634 N   0  0  0  0  0  0  0  0  0  0  0  0
    6.1527    2.7226    1.3929 N   0  0  0  0  0  0  0  0  0  0  0  0
   -8.2955   -0.7193   -0.3004 C   0  0  0  0  0  0  0  0  0  0  0  0
   -6.5937    0.0046    1.2418 C   0  0  0  0  0  0  0  0  0  0  0  0
   -6.8021    1.0746   -0.9104 C   0  0  0  0  0  0  0  0  0  0  0  0
   -8.4121   -2.0228    0.4843 C   0  0  0  0  0  0  0  0  0  0  0  0
   -6.7496   -1.3166    1.9894 C   0  0  0  0  0  0  0  0  0  0  0  0
   -5.3671    1.5750   -0.8657 C   0  0  0  0  0  0  0  0  0  0  0  0
   -1.0831    1.6092   -0.6533 C   0  0  0  0  0  0  0  0  0  0  0  0
   -0.5915    0.4319   -0.0534 C   0  0  0  0  0  0  0  0  0  0  0  0
   -3.2368    0.5247   -0.9860 C   0  0  0  0  0  0  0  0  0  0  0  0
    1.5666    1.5311    0.2746 C   0  0  0  0  0  0  0  0  0  0  0  0
   -2.4096    1.6408   -1.1153 C   0  0  0  0  0  0  0  0  0  0  0  0
    0.7329    0.4070    0.4052 C   0  0  0  0  0  0  0  0  0  0  0  0
    1.0831    2.7103   -0.3231 C   0  0  0  0  0  0  0  0  0  0  0  0
   -2.7504   -0.6366   -0.3938 C   0  0  0  0  0  0  0  0  0  0  0  0
   -0.2340    2.7243   -0.7753 C   0  0  0  0  0  0  0  0  0  0  0  0
   -1.4359   -0.6842    0.0701 C   0  0  0  0  0  0  0  0  0  0  0  0
    2.8925    1.5177    0.7294 C   0  0  0  0  0  0  0  0  0  0  0  0
    3.6917    2.6427    0.5869 C   0  0  0  0  0  0  0  0  0  0  0  0
    3.1296    3.7514   -0.0117 C   0  0  0  0  0  0  0  0  0  0  0  0
    4.1144   -0.7543    0.8202 C   0  0  0  0  0  0  0  0  0  0  0  0
    4.3461   -0.8266   -0.5586 C   0  0  0  0  0  0  0  0  0  0  0  0
    4.5645   -1.7928    1.6448 C   0  0  0  0  0  0  0  0  0  0  0  0
   -3.5423   -2.6724   -1.3339 C   0  0  0  0  0  0  0  0  0  0  0  0
    5.0496    2.6868    1.0316 C   0  0  0  0  0  0  0  0  0  0  0  0
    5.0176   -1.9204   -1.1048 C   0  0  0  0  0  0  0  0  0  0  0  0
    5.2361   -2.8866    1.0986 C   0  0  0  0  0  0  0  0  0  0  0  0
    5.4625   -2.9505   -0.2762 C   0  0  0  0  0  0  0  0  0  0  0  0
    6.4316   -1.3712   -2.9365 C   0  0  0  0  0  0  0  0  0  0  0  0
   -9.0264    0.0042    0.0839 H   0  0  0  0  0  0  0  0  0  0  0  0
   -8.5326   -0.9160   -1.3521 H   0  0  0  0  0  0  0  0  0  0  0  0
   -5.5551    0.3149    1.3829 H   0  0  0  0  0  0  0  0  0  0  0  0
   -7.2458    0.7619    1.6959 H   0  0  0  0  0  0  0  0  0  0  0  0
   -7.4778    1.8459   -0.5206 H   0  0  0  0  0  0  0  0  0  0  0  0
   -7.0693    0.8975   -1.9599 H   0  0  0  0  0  0  0  0  0  0  0  0
   -9.4416   -2.3925    0.4421 H   0  0  0  0  0  0  0  0  0  0  0  0
   -7.7620   -2.8035    0.0705 H   0  0  0  0  0  0  0  0  0  0  0  0
   -6.5550   -1.1669    3.0563 H   0  0  0  0  0  0  0  0  0  0  0  0
   -6.0431   -2.0733    1.6266 H   0  0  0  0  0  0  0  0  0  0  0  0
   -5.2978    2.4758   -1.4881 H   0  0  0  0  0  0  0  0  0  0  0  0
   -5.0458    1.8658    0.1408 H   0  0  0  0  0  0  0  0  0  0  0  0
   -2.7940    2.5432   -1.5875 H   0  0  0  0  0  0  0  0  0  0  0  0
    1.0994   -0.5065    0.8707 H   0  0  0  0  0  0  0  0  0  0  0  0
   -0.6159    3.6341   -1.2395 H   0  0  0  0  0  0  0  0  0  0  0  0
   -1.0687   -1.5990    0.5322 H   0  0  0  0  0  0  0  0  0  0  0  0
    3.2969    0.3378    2.3460 H   0  0  0  0  0  0  0  0  0  0  0  0
    3.6936    4.6683   -0.1577 H   0  0  0  0  0  0  0  0  0  0  0  0
    4.0079   -0.0371   -1.2258 H   0  0  0  0  0  0  0  0  0  0  0  0
   -2.5415   -3.0949   -1.4683 H   0  0  0  0  0  0  0  0  0  0  0  0
   -3.8792   -2.1997   -2.2619 H   0  0  0  0  0  0  0  0  0  0  0  0
   -4.2335   -3.4818   -1.0834 H   0  0  0  0  0  0  0  0  0  0  0  0
    5.5832   -3.6905    1.7444 H   0  0  0  0  0  0  0  0  0  0  0  0
    6.4863   -1.5437   -4.0149 H   0  0  0  0  0  0  0  0  0  0  0  0
    6.4282   -0.2916   -2.7556 H   0  0  0  0  0  0  0  0  0  0  0  0
    7.3084   -1.8255   -2.4650 H   0  0  0  0  0  0  0  0  0  0  0  0
  1 32  1  0  0  0  0
  2 37  1  0  0  0  0
  3 14  1  0  0  0  0
  3 15  1  0  0  0  0
  4 16  1  0  0  0  0
  4 19  1  0  0  0  0
  5 24  1  0  0  0  0
  5 33  1  0  0  0  0
  6 35  1  0  0  0  0
  6 38  1  0  0  0  0
  7 11  1  0  0  0  0
  7 12  1  0  0  0  0
  7 13  1  0  0  0  0
  8 27  1  0  0  0  0
  8 30  1  0  0  0  0
  8 55  1  0  0  0  0
  9 23  2  0  0  0  0
  9 29  1  0  0  0  0
 10 34  3  0  0  0  0
 11 14  1  0  0  0  0
 11 39  1  0  0  0  0
 11 40  1  0  0  0  0
 12 15  1  0  0  0  0
 12 41  1  0  0  0  0
 12 42  1  0  0  0  0
 13 16  1  0  0  0  0
 13 43  1  0  0  0  0
 13 44  1  0  0  0  0
 14 45  1  0  0  0  0
 14 46  1  0  0  0  0
 15 47  1  0  0  0  0
 15 48  1  0  0  0  0
 16 49  1  0  0  0  0
 16 50  1  0  0  0  0
 17 18  1  0  0  0  0
 17 21  1  0  0  0  0
 17 25  2  0  0  0  0
 18 22  2  0  0  0  0
 18 26  1  0  0  0  0
 19 21  2  0  0  0  0
 19 24  1  0  0  0  0
 20 22  1  0  0  0  0
 20 23  1  0  0  0  0
 20 27  2  0  0  0  0
 21 51  1  0  0  0  0
 22 52  1  0  0  0  0
 23 25  1  0  0  0  0
 24 26  2  0  0  0  0
 25 53  1  0  0  0  0
 26 54  1  0  0  0  0
 27 28  1  0  0  0  0
 28 29  2  0  0  0  0
 28 34  1  0  0  0  0
 29 56  1  0  0  0  0
 30 31  2  0  0  0  0
 30 32  1  0  0  0  0
 31 35  1  0  0  0  0
 31 57  1  0  0  0  0
 32 36  2  0  0  0  0
 33 58  1  0  0  0  0
 33 59  1  0  0  0  0
 33 60  1  0  0  0  0
 35 37  2  0  0  0  0
 36 37  1  0  0  0  0
 36 61  1  0  0  0  0
 38 62  1  0  0  0  0
 38 63  1  0  0  0  0
 38 64  1  0  0  0  0
M  END
> <PUBCHEM_COMPOUND_CID>
5330437

> <PUBCHEM_CONFORMER_RMSD>
1

> <PUBCHEM_CONFORMER_DIVERSEORDER>
5
90
148
53
48
28
173
184
58
183
81
145
204
9
127
166
158
138
109
164
25
154
172
107
68
80
97
196
176
123
160
175
191
161
171
185
201
203
150
177
205
132
156
54
35
157
74
43
181
198
199
75
72
36
85
120
95
106
122
140
152
137
167
188
100
64
51
162
133
65
144
186
192
76
94
27
118
20
195
30
142
44
47
187
60
112
89
149
55
4
73
134
159
128
102
179
6
61
87
23
96
165
108
193
26
153
103
10
86
163
70
113
180
38
98
101
143
105
202
169
69
79
115
3
200
104
13
111
29
56
84
151
124
189
32
136
46
14
155
116
31
147
2
77
130
63
139
67
92
50
182
93
1
45
42
168
121
8
117
41
170
39
57
66
119
78
146
22
12
49
17
174
7
11
52
126
114
59
82
178
194
91
18
125
129
99
40
71
197
131
33
37
21
15
88
141
62
83
24
135
19
110
16
34
190

> <PUBCHEM_MMFF94_PARTIAL_CHARGES>
43
1 -0.18
10 -0.56
11 0.27
12 0.27
13 0.27
14 0.28
15 0.28
16 0.28
19 0.08
2 -0.18
21 -0.15
22 -0.15
23 0.31
24 0.08
25 -0.15
26 -0.15
27 0.1
28 0.07
29 0.16
3 -0.56
30 0.1
31 -0.15
32 0.18
33 0.28
34 0.48
35 0.08
36 -0.15
37 0.18
38 0.28
4 -0.36
5 -0.36
51 0.15
52 0.15
53 0.15
54 0.15
55 0.4
56 0.15
57 0.15
6 -0.36
61 0.15
7 -0.81
8 -0.6
9 -0.62

> <PUBCHEM_EFFECTIVE_ROTOR_COUNT>
9.2

> <PUBCHEM_PHARMACOPHORE_FEATURES>
14
1 10 acceptor
1 3 acceptor
1 4 acceptor
1 5 acceptor
1 6 acceptor
1 7 cation
1 8 cation
1 8 donor
1 9 acceptor
6 17 18 19 21 24 26 rings
6 17 18 20 22 23 25 rings
6 3 7 11 12 14 15 rings
6 30 31 32 35 36 37 rings
6 9 20 23 27 28 29 rings

> <PUBCHEM_HEAVY_ATOM_COUNT>
38

> <PUBCHEM_ATOM_DEF_STEREO_COUNT>
0

> <PUBCHEM_ATOM_UDEF_STEREO_COUNT>
0

> <PUBCHEM_BOND_DEF_STEREO_COUNT>
0

> <PUBCHEM_BOND_UDEF_STEREO_COUNT>
0

> <PUBCHEM_ISOTOPIC_ATOM_COUNT>
0

> <PUBCHEM_COMPONENT_COUNT>
1

> <PUBCHEM_CACTVS_TAUTO_COUNT>
3

> <PUBCHEM_CONFORMER_ID>
0051560500000005

> <PUBCHEM_MMFF94_ENERGY>
150.1447

> <PUBCHEM_FEATURE_SELFOVERLAP>
71.111

> <PUBCHEM_SHAPE_FINGERPRINT>
10533779 47 18261969513930185523
10692045 39 17489593333812712599
117089 54 18126009252583358366
11828532 37 18334864896282910654
12047536 79 18131070420058191393
12539765 74 18054231196887769852
13533116 47 17989199356641743040
13782708 43 18186516605956732591
14675020 138 12967137085756719893
14955137 171 18259984886377601141
15150950 15 18335433352315931710
16112460 7 18341897411334329833
19301679 30 18410286995701392792
21130935 74 18340769330080024755
21682296 61 18334858308303309465
21781051 124 18336271154200641023
2303208 19 18113334202817811885
23559900 14 18341603815886400884
4093350 32 17917989499428271416
4144715 1 18259987093958960953
4408954 64 14978847463866920198
9831232 110 17822005407030282613
9962374 69 18342727546465520006

> <PUBCHEM_SHAPE_MULTIPOLES>
742.36
23.21
4.66
2.1
38.33
0.86
-0.44
-17.75
-2.2
-8.41
0.26
-2.72
-1.49
3.53

> <PUBCHEM_SHAPE_SELFOVERLAP>
1604.051

> <PUBCHEM_SHAPE_VOLUME>
409.6

> <PUBCHEM_COORDINATE_TYPE>
2
5
10

$$$$
