10048045
  -OEChem-10052115143D

 55 59  0     0  0  0  0  0  0999 V2000
   -6.4734    0.2372    1.1687 O   0  0  0  0  0  0  0  0  0  0  0  0
    4.2840   -1.5546    2.1809 O   0  0  0  0  0  0  0  0  0  0  0  0
   -5.1389   -1.2406   -0.0164 N   0  0  0  0  0  0  0  0  0  0  0  0
   -0.8247    1.4370   -0.2769 N   0  0  0  0  0  0  0  0  0  0  0  0
    1.3311   -1.4613   -1.0849 N   0  0  0  0  0  0  0  0  0  0  0  0
   -1.0295   -0.3490   -1.7483 N   0  0  0  0  0  0  0  0  0  0  0  0
    0.6013   -2.1011   -2.0302 N   0  0  0  0  0  0  0  0  0  0  0  0
   -5.9949   -2.3842    0.1362 C   0  0  0  0  0  0  0  0  0  0  0  0
   -5.4408   -3.7682    0.0438 C   0  0  0  0  0  0  0  0  0  0  0  0
   -5.9212   -3.2349    1.3616 C   0  0  0  0  0  0  0  0  0  0  0  0
   -5.4361    0.0192    0.5178 C   0  0  0  0  0  0  0  0  0  0  0  0
   -4.4626    1.0773    0.2991 C   0  0  0  0  0  0  0  0  0  0  0  0
   -3.1165    0.7605    0.1164 C   0  0  0  0  0  0  0  0  0  0  0  0
   -4.8754    2.4096    0.2723 C   0  0  0  0  0  0  0  0  0  0  0  0
   -2.1641    1.7711   -0.0959 C   0  0  0  0  0  0  0  0  0  0  0  0
    0.9341   -0.3038   -0.4670 C   0  0  0  0  0  0  0  0  0  0  0  0
   -2.5963    3.1080   -0.1202 C   0  0  0  0  0  0  0  0  0  0  0  0
    1.9141    0.0602    0.4305 C   0  0  0  0  0  0  0  0  0  0  0  0
   -3.9424    3.4248    0.0627 C   0  0  0  0  0  0  0  0  0  0  0  0
   -0.3339    0.2800   -0.8337 C   0  0  0  0  0  0  0  0  0  0  0  0
    2.9388   -0.9160    0.3479 C   0  0  0  0  0  0  0  0  0  0  0  0
    2.5527   -1.8442   -0.5955 C   0  0  0  0  0  0  0  0  0  0  0  0
    1.9253    1.2376    1.3241 C   0  0  0  0  0  0  0  0  0  0  0  0
   -1.6187    4.2157   -0.3429 C   0  0  0  0  0  0  0  0  0  0  0  0
    4.1697   -0.9786    1.0837 C   0  0  0  0  0  0  0  0  0  0  0  0
    5.4109   -0.3261    0.5663 C   0  0  0  0  0  0  0  0  0  0  0  0
   -0.5282   -1.5118   -2.3046 C   0  0  0  0  0  0  0  0  0  0  0  0
    5.3542    0.3289   -0.6414 C   0  0  0  0  0  0  0  0  0  0  0  0
    6.5586   -0.4072    1.3194 C   0  0  0  0  0  0  0  0  0  0  0  0
    6.5124    0.9380   -1.1243 C   0  0  0  0  0  0  0  0  0  0  0  0
    7.7168    0.2021    0.8364 C   0  0  0  0  0  0  0  0  0  0  0  0
    7.6936    0.8747   -0.3854 C   0  0  0  0  0  0  0  0  0  0  0  0
   -6.9759   -2.2280   -0.3008 H   0  0  0  0  0  0  0  0  0  0  0  0
   -6.0440   -4.5236   -0.4445 H   0  0  0  0  0  0  0  0  0  0  0  0
   -4.3729   -3.8927   -0.0885 H   0  0  0  0  0  0  0  0  0  0  0  0
   -5.1752   -3.0013    2.1113 H   0  0  0  0  0  0  0  0  0  0  0  0
   -6.8478   -3.6302    1.7590 H   0  0  0  0  0  0  0  0  0  0  0  0
   -4.3147   -1.3716   -0.5954 H   0  0  0  0  0  0  0  0  0  0  0  0
   -2.7806   -0.2699    0.1992 H   0  0  0  0  0  0  0  0  0  0  0  0
   -5.9203    2.6764    0.4085 H   0  0  0  0  0  0  0  0  0  0  0  0
   -4.2811    4.4573    0.0446 H   0  0  0  0  0  0  0  0  0  0  0  0
   -0.1695    2.1046    0.1143 H   0  0  0  0  0  0  0  0  0  0  0  0
    3.0404   -2.7393   -0.9588 H   0  0  0  0  0  0  0  0  0  0  0  0
    2.7746    1.2205    2.0144 H   0  0  0  0  0  0  0  0  0  0  0  0
    1.9960    2.1619    0.7418 H   0  0  0  0  0  0  0  0  0  0  0  0
    1.0170    1.2728    1.9344 H   0  0  0  0  0  0  0  0  0  0  0  0
   -2.1193    5.1844   -0.4487 H   0  0  0  0  0  0  0  0  0  0  0  0
   -0.9293    4.2922    0.5043 H   0  0  0  0  0  0  0  0  0  0  0  0
   -1.0473    4.0491   -1.2623 H   0  0  0  0  0  0  0  0  0  0  0  0
   -1.1710   -1.9827   -3.0664 H   0  0  0  0  0  0  0  0  0  0  0  0
    4.4575    0.4028   -1.2463 H   0  0  0  0  0  0  0  0  0  0  0  0
    6.6045   -0.9236    2.2728 H   0  0  0  0  0  0  0  0  0  0  0  0
    6.4948    1.4621   -2.0755 H   0  0  0  0  0  0  0  0  0  0  0  0
    8.6368    0.1531    1.4116 H   0  0  0  0  0  0  0  0  0  0  0  0
    8.5954    1.3490   -0.7612 H   0  0  0  0  0  0  0  0  0  0  0  0
  1 11  2  0  0  0  0
  2 25  2  0  0  0  0
  3  8  1  0  0  0  0
  3 11  1  0  0  0  0
  3 38  1  0  0  0  0
  4 15  1  0  0  0  0
  4 20  1  0  0  0  0
  4 42  1  0  0  0  0
  5  7  1  0  0  0  0
  5 16  1  0  0  0  0
  5 22  1  0  0  0  0
  6 20  2  0  0  0  0
  6 27  1  0  0  0  0
  7 27  2  0  0  0  0
  8  9  1  0  0  0  0
  8 10  1  0  0  0  0
  8 33  1  0  0  0  0
  9 10  1  0  0  0  0
  9 34  1  0  0  0  0
  9 35  1  0  0  0  0
 10 36  1  0  0  0  0
 10 37  1  0  0  0  0
 11 12  1  0  0  0  0
 12 13  2  0  0  0  0
 12 14  1  0  0  0  0
 13 15  1  0  0  0  0
 13 39  1  0  0  0  0
 14 19  2  0  0  0  0
 14 40  1  0  0  0  0
 15 17  2  0  0  0  0
 16 18  2  0  0  0  0
 16 20  1  0  0  0  0
 17 19  1  0  0  0  0
 17 24  1  0  0  0  0
 18 21  1  0  0  0  0
 18 23  1  0  0  0  0
 19 41  1  0  0  0  0
 21 22  2  0  0  0  0
 21 25  1  0  0  0  0
 22 43  1  0  0  0  0
 23 44  1  0  0  0  0
 23 45  1  0  0  0  0
 23 46  1  0  0  0  0
 24 47  1  0  0  0  0
 24 48  1  0  0  0  0
 24 49  1  0  0  0  0
 25 26  1  0  0  0  0
 26 28  2  0  0  0  0
 26 29  1  0  0  0  0
 27 50  1  0  0  0  0
 28 30  1  0  0  0  0
 28 51  1  0  0  0  0
 29 31  2  0  0  0  0
 29 52  1  0  0  0  0
 30 32  2  0  0  0  0
 30 53  1  0  0  0  0
 31 32  1  0  0  0  0
 31 54  1  0  0  0  0
 32 55  1  0  0  0  0
M  END
> <PUBCHEM_COMPOUND_CID>
10048045

> <PUBCHEM_CONFORMER_RMSD>
1

> <PUBCHEM_CONFORMER_DIVERSEORDER>
1
9
11
52
46
8
49
38
53
22
12
43
30
19
50
24
47
42
39
4
41
26
45
7
5
14
31
44
21
40
37
51
13
6
36
18
27
33
16
48
34
28
29
23
32
15
25
35
10
3
20
17
2

> <PUBCHEM_MMFF94_PARTIAL_CHARGES>
49
1 -0.57
10 -0.2
11 0.54
12 0.09
13 -0.15
14 -0.15
15 0.1
16 -0.24
17 -0.14
18 -0.18
19 -0.15
2 -0.57
20 0.58
21 -0.09
22 -0.3
23 0.18
24 0.14
25 0.57
26 0.09
27 0.6
28 -0.15
29 -0.15
3 -0.58
30 -0.15
31 -0.15
32 -0.15
33 0.1
34 0.1
35 0.1
36 0.1
37 0.1
38 0.37
39 0.15
4 -0.55
40 0.15
41 0.15
42 0.4
43 0.15
5 0.51
50 0.06
51 0.15
52 0.15
53 0.15
54 0.15
55 0.15
6 -0.66
7 -0.65
8 0.05
9 -0.2

> <PUBCHEM_EFFECTIVE_ROTOR_COUNT>
7.6

> <PUBCHEM_PHARMACOPHORE_FEATURES>
10
1 1 acceptor
1 2 acceptor
1 3 donor
1 4 donor
3 4 6 20 cation
3 6 7 27 cation
5 5 16 18 21 22 rings
6 12 13 14 15 17 19 rings
6 26 28 29 30 31 32 rings
6 5 6 7 16 20 27 rings

> <PUBCHEM_HEAVY_ATOM_COUNT>
32

> <PUBCHEM_ATOM_DEF_STEREO_COUNT>
0

> <PUBCHEM_ATOM_UDEF_STEREO_COUNT>
0

> <PUBCHEM_BOND_DEF_STEREO_COUNT>
0

> <PUBCHEM_BOND_UDEF_STEREO_COUNT>
0

> <PUBCHEM_ISOTOPIC_ATOM_COUNT>
0

> <PUBCHEM_COMPONENT_COUNT>
1

> <PUBCHEM_CACTVS_TAUTO_COUNT>
6

> <PUBCHEM_CONFORMER_ID>
0099522D00000001

> <PUBCHEM_MMFF94_ENERGY>
107.3339

> <PUBCHEM_FEATURE_SELFOVERLAP>
50.981

> <PUBCHEM_SHAPE_FINGERPRINT>
10 15 18342453707924590288
10794284 68 18124605425126085310
10815517 723 17487889215191257535
11200772 48 9583523135348471277
11646440 116 16989127569540939112
12107698 1 18334575758688612928
12144600 37 18341337687324172366
12596602 18 17895473614156989544
128238 76 18409451422534437662
13761468 95 12319470835768838971
13914758 101 10231764396480853094
14068700 675 18115026424016159735
14294032 229 17917423259466728534
14394314 77 18260551096327017521
1454969 45 18343858922851356125
14659021 117 18261114089171842723
14856354 85 18341611581034733623
15328829 1 18188212117026657734
15685185 35 17680160852933961748
15728490 51 18260550056232872546
18608769 82 18343582966807159594
19315958 150 17845104974442068817
19377110 9 18114177515240417026
19611394 137 18411703205126036376
20511986 3 17168984474853534761
21133410 52 17840019972775120615
21458453 9 18342457096864816529
21781051 124 18059582369576665766
21796203 349 17976853044406912523
22956985 138 17903639928156973321
23559900 14 17764320435648562575
23569914 152 12688973782133896562
38570 142 13326855522060767439
4073 2 18340489954804452875
4144715 1 18196096538694362632
4403749 210 18271796935024570815
4461854 278 18058181694520873631
4625314 4 18335421240412483324
550186 72 18411134706075966332
6673363 416 18338529633548477372
9953998 17 18272373066586110409

> <PUBCHEM_SHAPE_MULTIPOLES>
621.9
19.87
3.94
1.51
16.37
1.24
-0.31
-4.87
6.37
-9.43
0
1.05
-0.88
0.01

> <PUBCHEM_SHAPE_SELFOVERLAP>
1373.422

> <PUBCHEM_SHAPE_VOLUME>
332.7

> <PUBCHEM_COORDINATE_TYPE>
2
5
10

$$$$
