49830482
  -OEChem-10052115183D

 47 49  0     1  0  0  0  0  0999 V2000
   -4.7909    2.7967    1.1850 O   0  0  0  0  0  0  0  0  0  0  0  0
   -0.4567   -3.0484   -0.7184 O   0  0  0  0  0  0  0  0  0  0  0  0
   -1.3960   -1.0747    0.0554 N   0  0  0  0  0  0  0  0  0  0  0  0
   -4.4934   -2.7561    1.3251 N   0  0  0  0  0  0  0  0  0  0  0  0
    7.4153    1.5894    0.1756 N   0  0  0  0  0  0  0  0  0  0  0  0
   -2.7685   -1.5277    0.0477 C   0  0  2  0  0  0  0  0  0  0  0  0
   -3.7096   -0.3821   -0.2670 C   0  0  0  0  0  0  0  0  0  0  0  0
   -3.1372   -2.2146    1.3727 C   0  0  0  0  0  0  0  0  0  0  0  0
   -3.8185    0.6937    0.6143 C   0  0  0  0  0  0  0  0  0  0  0  0
   -4.4671   -0.4039   -1.4381 C   0  0  0  0  0  0  0  0  0  0  0  0
   -0.3147   -1.8743   -0.3330 C   0  0  0  0  0  0  0  0  0  0  0  0
    1.0099   -1.2810   -0.2457 C   0  0  0  0  0  0  0  0  0  0  0  0
   -4.6851    1.7475    0.3245 C   0  0  0  0  0  0  0  0  0  0  0  0
   -5.3336    0.6500   -1.7277 C   0  0  0  0  0  0  0  0  0  0  0  0
   -5.4428    1.7257   -0.8463 C   0  0  0  0  0  0  0  0  0  0  0  0
    3.5513   -0.1428   -0.0785 C   0  0  0  0  0  0  0  0  0  0  0  0
    2.1274   -2.0944   -0.0578 C   0  0  0  0  0  0  0  0  0  0  0  0
    1.1630    0.1016   -0.3500 C   0  0  0  0  0  0  0  0  0  0  0  0
    3.3980   -1.5253    0.0258 C   0  0  0  0  0  0  0  0  0  0  0  0
    2.4337    0.6706   -0.2662 C   0  0  0  0  0  0  0  0  0  0  0  0
    4.8692    0.4477    0.0086 C   0  0  0  0  0  0  0  0  0  0  0  0
    5.8586   -0.1616    0.7724 C   0  0  0  0  0  0  0  0  0  0  0  0
    5.1513    1.6271   -0.6719 C   0  0  0  0  0  0  0  0  0  0  0  0
   -5.6958    3.8405    0.8276 C   0  0  0  0  0  0  0  0  0  0  0  0
    7.1039    0.4440    0.8229 C   0  0  0  0  0  0  0  0  0  0  0  0
    6.4284    2.1525   -0.5569 C   0  0  0  0  0  0  0  0  0  0  0  0
   -2.8492   -2.2789   -0.7499 H   0  0  0  0  0  0  0  0  0  0  0  0
   -3.0530   -1.5260    2.2209 H   0  0  0  0  0  0  0  0  0  0  0  0
   -2.4376   -3.0358    1.5699 H   0  0  0  0  0  0  0  0  0  0  0  0
   -1.2170   -0.1591    0.4546 H   0  0  0  0  0  0  0  0  0  0  0  0
   -3.2303    0.7283    1.5277 H   0  0  0  0  0  0  0  0  0  0  0  0
   -4.3934   -1.2347   -2.1346 H   0  0  0  0  0  0  0  0  0  0  0  0
   -5.9231    0.6321   -2.6399 H   0  0  0  0  0  0  0  0  0  0  0  0
   -4.5642   -3.4364    0.5694 H   0  0  0  0  0  0  0  0  0  0  0  0
   -4.6834   -3.2654    2.1871 H   0  0  0  0  0  0  0  0  0  0  0  0
   -6.1347    2.5103   -1.1328 H   0  0  0  0  0  0  0  0  0  0  0  0
    2.0291   -3.1738    0.0240 H   0  0  0  0  0  0  0  0  0  0  0  0
    0.3233    0.7687   -0.5216 H   0  0  0  0  0  0  0  0  0  0  0  0
    4.2416   -2.1999    0.1443 H   0  0  0  0  0  0  0  0  0  0  0  0
    2.5024    1.7532   -0.3299 H   0  0  0  0  0  0  0  0  0  0  0  0
    5.6982   -1.0654    1.3499 H   0  0  0  0  0  0  0  0  0  0  0  0
    4.4365    2.1382   -1.3074 H   0  0  0  0  0  0  0  0  0  0  0  0
   -5.3901    4.3384   -0.0989 H   0  0  0  0  0  0  0  0  0  0  0  0
   -6.7290    3.4797    0.7835 H   0  0  0  0  0  0  0  0  0  0  0  0
   -5.6532    4.5916    1.6231 H   0  0  0  0  0  0  0  0  0  0  0  0
    7.9081    0.0129    1.4101 H   0  0  0  0  0  0  0  0  0  0  0  0
    6.7018    3.0667   -1.0736 H   0  0  0  0  0  0  0  0  0  0  0  0
  1 13  1  0  0  0  0
  1 24  1  0  0  0  0
  2 11  2  0  0  0  0
  3  6  1  0  0  0  0
  3 11  1  0  0  0  0
  3 30  1  0  0  0  0
  4  8  1  0  0  0  0
  4 34  1  0  0  0  0
  4 35  1  0  0  0  0
  5 25  2  0  0  0  0
  5 26  1  0  0  0  0
  6  7  1  0  0  0  0
  6  8  1  0  0  0  0
  6 27  1  0  0  0  0
  7  9  2  0  0  0  0
  7 10  1  0  0  0  0
  8 28  1  0  0  0  0
  8 29  1  0  0  0  0
  9 13  1  0  0  0  0
  9 31  1  0  0  0  0
 10 14  2  0  0  0  0
 10 32  1  0  0  0  0
 11 12  1  0  0  0  0
 12 17  2  0  0  0  0
 12 18  1  0  0  0  0
 13 15  2  0  0  0  0
 14 15  1  0  0  0  0
 14 33  1  0  0  0  0
 15 36  1  0  0  0  0
 16 19  2  0  0  0  0
 16 20  1  0  0  0  0
 16 21  1  0  0  0  0
 17 19  1  0  0  0  0
 17 37  1  0  0  0  0
 18 20  2  0  0  0  0
 18 38  1  0  0  0  0
 19 39  1  0  0  0  0
 20 40  1  0  0  0  0
 21 22  2  0  0  0  0
 21 23  1  0  0  0  0
 22 25  1  0  0  0  0
 22 41  1  0  0  0  0
 23 26  2  0  0  0  0
 23 42  1  0  0  0  0
 24 43  1  0  0  0  0
 24 44  1  0  0  0  0
 24 45  1  0  0  0  0
 25 46  1  0  0  0  0
 26 47  1  0  0  0  0
M  END
> <PUBCHEM_COMPOUND_CID>
49830482

> <PUBCHEM_CONFORMER_RMSD>
0.8

> <PUBCHEM_CONFORMER_DIVERSEORDER>
1
45
38
17
67
25
77
53
74
79
29
42
33
57
18
80
78
19
83
13
61
24
65
49
81
58
46
44
68
64
15
7
76
82
30
62
72
56
59
34
52
47
39
55
73
60
36
20
75
69
27
41
8
70
21
26
50
54
71
43
66
63
16
23
9
14
31
51
48
22
10
5
28
6
2
40
4
11
12
37
3
35
32

> <PUBCHEM_MMFF94_PARTIAL_CHARGES>
39
1 -0.36
10 -0.15
11 0.54
12 0.09
13 0.08
14 -0.15
15 -0.15
17 -0.15
18 -0.15
19 -0.15
2 -0.57
20 -0.15
22 -0.15
23 -0.15
24 0.28
25 0.16
26 0.16
3 -0.73
30 0.37
31 0.15
32 0.15
33 0.15
34 0.36
35 0.36
36 0.15
37 0.15
38 0.15
39 0.15
4 -0.99
40 0.15
41 0.15
42 0.15
46 0.15
47 0.15
5 -0.62
6 0.44
7 -0.14
8 0.27
9 -0.15

> <PUBCHEM_EFFECTIVE_ROTOR_COUNT>
7

> <PUBCHEM_PHARMACOPHORE_FEATURES>
9
1 1 acceptor
1 2 acceptor
1 3 donor
1 4 cation
1 4 donor
1 5 acceptor
6 12 16 17 18 19 20 rings
6 5 21 22 23 25 26 rings
6 7 9 10 13 14 15 rings

> <PUBCHEM_HEAVY_ATOM_COUNT>
26

> <PUBCHEM_ATOM_DEF_STEREO_COUNT>
0

> <PUBCHEM_ATOM_UDEF_STEREO_COUNT>
1

> <PUBCHEM_BOND_DEF_STEREO_COUNT>
0

> <PUBCHEM_BOND_UDEF_STEREO_COUNT>
0

> <PUBCHEM_ISOTOPIC_ATOM_COUNT>
0

> <PUBCHEM_COMPONENT_COUNT>
1

> <PUBCHEM_CACTVS_TAUTO_COUNT>
2

> <PUBCHEM_CONFORMER_ID>
02F85A5200000001

> <PUBCHEM_MMFF94_ENERGY>
85.8878

> <PUBCHEM_FEATURE_SELFOVERLAP>
45.671

> <PUBCHEM_SHAPE_FINGERPRINT>
10 15 17967820461362298939
10291535 26 18413110550688720937
10319688 45 17976826715889038427
10595046 47 18271517620706937559
10883706 163 18187643566083311717
11036077 4 12035730882564199957
11089746 13 18131342042890951948
11135609 201 18271814506121135171
12107183 9 18117551838922180266
12422481 6 17240478135221525300
12596602 18 17749666389560481314
12895837 130 18130786733837818341
13073987 5 18335424560232676011
13167372 99 18409446990919589080
13540713 4 18269015123389050991
13782708 43 12031793552625559804
13785724 45 17974841780258872082
14150022 121 18270134499983532451
14347329 18 18341606010372044480
14790565 3 18265058110221441868
14950920 106 13407086889976935591
15183329 4 18261105279856600332
15188451 53 14562826477662313385
15348495 7 15719680943529954980
15519825 34 16516552004714524121
17780758 139 12396293747392169135
18608769 82 18339645637781376907
20281389 69 18040712580409740060
21033648 144 18260823761888012783
21033648 29 18201147840940774658
21150785 3 14476957930899908568
21279426 13 18341341015749376630
21298829 104 18341331110890445780
21774942 28 17988925518781607272
22122407 14 18337394941252222544
22956985 138 16601272923299380067
23081809 10 16950281858328805678
23522609 53 17677350415065379324
23569914 152 16695850203000078084
270888 7 18341051792509251937
2748736 6 18411694370647801040
2838139 119 18273208720771166648
32027 91 18128270986677771406
3663271 9 17749384919110950514
397830 11 11891623481015930870
4073 2 17894633686374283626
4144715 1 18261122906365940978
4169191 19 18260545658576836340
465052 167 7997978990295916080
484985 159 8214149551848648559
5104073 3 18040155097823580186
5372103 7 17751617907284657533
57724786 102 18265614282157320179
6328613 192 18336263544109085340
636775 72 18199461259646974664
636775 8 8141812733634399808
7288768 16 18116163182117285385
7495541 125 10665227064638656254
7970288 3 8718829773505612672
9981440 41 18411421687828043331

> <PUBCHEM_SHAPE_MULTIPOLES>
508.39
19.49
3.43
1.17
17.34
0.81
-0.05
15.8
1.32
-4.71
0.92
-1.61
0.04
-0.59

> <PUBCHEM_SHAPE_SELFOVERLAP>
1099.16

> <PUBCHEM_SHAPE_VOLUME>
277

> <PUBCHEM_COORDINATE_TYPE>
2
5
10

$$$$
