49830795
  -OEChem-10062121553D

 37 39  0     0  0  0  0  0  0999 V2000
    4.6539   -0.1053   -0.0009 S   0  0  0  0  0  0  0  0  0  0  0  0
   -4.5535   -0.2899    0.0019 S   0  0  0  0  0  0  0  0  0  0  0  0
    5.2602    0.2993   -1.2619 O   0  0  0  0  0  0  0  0  0  0  0  0
    5.2447    0.3286    1.2571 O   0  0  0  0  0  0  0  0  0  0  0  0
   -4.8187   -3.2435   -0.0111 O   0  0  0  0  0  0  0  0  0  0  0  0
   -2.7497    3.3053   -0.0044 N   0  0  0  0  0  0  0  0  0  0  0  0
   -2.5880   -3.7747    0.0054 N   0  0  0  0  0  0  0  0  0  0  0  0
    2.9754    0.3757   -0.0003 C   0  0  0  0  0  0  0  0  0  0  0  0
    0.2936    1.1442    0.0002 C   0  0  0  0  0  0  0  0  0  0  0  0
   -1.0921    1.5422    0.0003 C   0  0  0  0  0  0  0  0  0  0  0  0
   -2.1186    0.5785    0.0014 C   0  0  0  0  0  0  0  0  0  0  0  0
    4.6044   -1.8832    0.0028 C   0  0  0  0  0  0  0  0  0  0  0  0
    2.3059    0.5704    1.2079 C   0  0  0  0  0  0  0  0  0  0  0  0
    2.3041    0.5653   -1.2082 C   0  0  0  0  0  0  0  0  0  0  0  0
    0.9650    0.9546    1.2080 C   0  0  0  0  0  0  0  0  0  0  0  0
    0.9632    0.9494   -1.2079 C   0  0  0  0  0  0  0  0  0  0  0  0
   -3.4427    1.0270   -0.0002 C   0  0  0  0  0  0  0  0  0  0  0  0
   -2.0566   -0.8553    0.0037 C   0  0  0  0  0  0  0  0  0  0  0  0
   -1.4734    2.8743   -0.0025 C   0  0  0  0  0  0  0  0  0  0  0  0
   -3.2989   -1.4442    0.0042 C   0  0  0  0  0  0  0  0  0  0  0  0
    5.9955   -2.4767    0.0027 C   0  0  0  0  0  0  0  0  0  0  0  0
   -3.7437    2.3904   -0.0030 C   0  0  0  0  0  0  0  0  0  0  0  0
   -3.6299   -2.8324    0.0049 C   0  0  0  0  0  0  0  0  0  0  0  0
    4.0545   -2.2033   -0.8873 H   0  0  0  0  0  0  0  0  0  0  0  0
    4.0563   -2.1990    0.8955 H   0  0  0  0  0  0  0  0  0  0  0  0
    2.8067    0.4214    2.1603 H   0  0  0  0  0  0  0  0  0  0  0  0
    2.8044    0.4128   -2.1603 H   0  0  0  0  0  0  0  0  0  0  0  0
    0.4574    1.1004    2.1587 H   0  0  0  0  0  0  0  0  0  0  0  0
    0.4541    1.0914   -2.1584 H   0  0  0  0  0  0  0  0  0  0  0  0
   -1.1279   -1.4126    0.0048 H   0  0  0  0  0  0  0  0  0  0  0  0
   -0.7336    3.6704   -0.0039 H   0  0  0  0  0  0  0  0  0  0  0  0
    6.5584   -2.1679   -0.8839 H   0  0  0  0  0  0  0  0  0  0  0  0
    6.5615   -2.1593    0.8844 H   0  0  0  0  0  0  0  0  0  0  0  0
    5.9426   -3.5697    0.0079 H   0  0  0  0  0  0  0  0  0  0  0  0
   -4.7572    2.7726   -0.0043 H   0  0  0  0  0  0  0  0  0  0  0  0
   -2.7947   -4.7681   -0.0002 H   0  0  0  0  0  0  0  0  0  0  0  0
   -1.6070   -3.5177    0.0113 H   0  0  0  0  0  0  0  0  0  0  0  0
  1  3  2  0  0  0  0
  1  4  2  0  0  0  0
  1  8  1  0  0  0  0
  1 12  1  0  0  0  0
  2 17  1  0  0  0  0
  2 20  1  0  0  0  0
  5 23  2  0  0  0  0
  6 19  1  0  0  0  0
  6 22  2  0  0  0  0
  7 23  1  0  0  0  0
  7 36  1  0  0  0  0
  7 37  1  0  0  0  0
  8 13  2  0  0  0  0
  8 14  1  0  0  0  0
  9 10  1  0  0  0  0
  9 15  2  0  0  0  0
  9 16  1  0  0  0  0
 10 11  1  0  0  0  0
 10 19  2  0  0  0  0
 11 17  2  0  0  0  0
 11 18  1  0  0  0  0
 12 21  1  0  0  0  0
 12 24  1  0  0  0  0
 12 25  1  0  0  0  0
 13 15  1  0  0  0  0
 13 26  1  0  0  0  0
 14 16  2  0  0  0  0
 14 27  1  0  0  0  0
 15 28  1  0  0  0  0
 16 29  1  0  0  0  0
 17 22  1  0  0  0  0
 18 20  2  0  0  0  0
 18 30  1  0  0  0  0
 19 31  1  0  0  0  0
 20 23  1  0  0  0  0
 21 32  1  0  0  0  0
 21 33  1  0  0  0  0
 21 34  1  0  0  0  0
 22 35  1  0  0  0  0
M  END
> <PUBCHEM_COMPOUND_CID>
49830795

> <PUBCHEM_CONFORMER_RMSD>
0.6

> <PUBCHEM_CONFORMER_DIVERSEORDER>
1
27
23
12
7
26
21
3
22
25
2
11
16
20
10
5
24
28
4
6
13
8
17
9
15
14
18
19

> <PUBCHEM_MMFF94_PARTIAL_CHARGES>
28
1 1.2
12 0.11
13 -0.15
14 -0.15
15 -0.15
16 -0.15
17 0.04
18 -0.15
19 0.16
2 -0.08
20 -0.05
22 0.16
23 0.71
26 0.15
27 0.15
28 0.15
29 0.15
3 -0.65
30 0.15
31 0.15
35 0.15
36 0.37
37 0.37
4 -0.65
5 -0.57
6 -0.62
7 -0.8
8 -0.01

> <PUBCHEM_EFFECTIVE_ROTOR_COUNT>
4

> <PUBCHEM_PHARMACOPHORE_FEATURES>
8
1 3 acceptor
1 4 acceptor
1 5 acceptor
1 6 acceptor
1 7 donor
5 2 11 17 18 20 rings
6 6 10 11 17 19 22 rings
6 8 9 13 14 15 16 rings

> <PUBCHEM_HEAVY_ATOM_COUNT>
23

> <PUBCHEM_ATOM_DEF_STEREO_COUNT>
0

> <PUBCHEM_ATOM_UDEF_STEREO_COUNT>
0

> <PUBCHEM_BOND_DEF_STEREO_COUNT>
0

> <PUBCHEM_BOND_UDEF_STEREO_COUNT>
0

> <PUBCHEM_ISOTOPIC_ATOM_COUNT>
0

> <PUBCHEM_COMPONENT_COUNT>
1

> <PUBCHEM_CACTVS_TAUTO_COUNT>
2

> <PUBCHEM_CONFORMER_ID>
02F85B8B00000001

> <PUBCHEM_MMFF94_ENERGY>
49.6289

> <PUBCHEM_FEATURE_SELFOVERLAP>
40.68

> <PUBCHEM_SHAPE_FINGERPRINT>
10595046 47 18334864948159628420
10616163 171 18410857654920097951
11056379 131 18411428288601770988
11186622 123 18334849494509010706
11796584 16 18268995285240351278
12236239 1 17676774188592916517
12363563 72 18194687196937346815
12523318 42 18341038671051457480
12553582 1 18192716872227096291
12633257 1 16199594730580486951
12643181 29 18194117413913088286
12990986 174 18338797943611083515
13140716 1 18270403922892009345
13167823 11 18261395503655091744
13583140 156 17917134053670099896
13631057 29 18339645641654019406
14251751 18 18412824668980982594
14251764 30 17971487444738175131
14420673 8 18124317108514618758
14844126 61 18409728478348847787
14866123 147 18412549799985583811
15042514 8 18410015446984147649
15230672 131 17832146022591258902
15250474 111 18261385595203100122
15352361 1 18338797939347829695
15927050 60 18197212543571724183
17492 89 18409450327639764118
17844677 252 18341616993083831624
1813 80 17095810915078176868
19141452 34 18263364698557231372
19958102 18 18262225613248132847
21065198 57 18412542081407334096
21065201 7 18340195319984722112
23503958 8 18410291410858330546
23557571 272 18201727236266397765
23559900 14 18340477937085577792
3004659 81 18041838540145561359
335352 9 18410574024966661141
4073 2 18340484474858589666
4214541 1 18338516322769041060
44062 13 18340770343038496958
463206 1 18046907362033883715
5104073 3 18202562861266944120
559249 180 18189053092591375011
56633871 153 18124604326037002443
5924683 9 18411416206805564799
59755656 215 18410851032702981023
59755656 520 18196650701567345565
602551 16 18411980265098107328
633830 44 16805901593361200268
6437827 68 18268148665244684678
67856867 119 18188775084271386572
7970288 3 18122625221864868327
9709674 26 18271530792743555598

> <PUBCHEM_SHAPE_MULTIPOLES>
453.46
12.31
3.73
0.97
13.49
2.55
0
7.45
0.01
-5.2
0
0.97
-0.26
0.01

> <PUBCHEM_SHAPE_SELFOVERLAP>
967.027

> <PUBCHEM_SHAPE_VOLUME>
253.8

> <PUBCHEM_COORDINATE_TYPE>
2
5
10

$$$$
