695484
  -OEChem-10062122023D

 26 28  0     0  0  0  0  0  0999 V2000
   -0.4247    2.0226    0.0001 S   0  0  0  0  0  0  0  0  0  0  0  0
    2.1770    1.4854   -0.0004 N   0  0  0  0  0  0  0  0  0  0  0  0
   -1.5285   -1.6996    0.0009 N   0  0  0  0  0  0  0  0  0  0  0  0
   -3.5919   -0.4372    0.0006 N   0  0  0  0  0  0  0  0  0  0  0  0
   -3.6286    1.9414   -0.0023 N   0  0  0  0  0  0  0  0  0  0  0  0
    0.5690   -0.3595    0.0005 C   0  0  0  0  0  0  0  0  0  0  0  0
   -0.8586   -0.5147    0.0007 C   0  0  0  0  0  0  0  0  0  0  0  0
    1.6282   -1.2923    0.0005 C   0  0  0  0  0  0  0  0  0  0  0  0
    0.9237    0.9843    0.0001 C   0  0  0  0  0  0  0  0  0  0  0  0
   -1.5256    0.7099    0.0004 C   0  0  0  0  0  0  0  0  0  0  0  0
    2.9380   -0.8238    0.0000 C   0  0  0  0  0  0  0  0  0  0  0  0
    3.1438    0.5436   -0.0004 C   0  0  0  0  0  0  0  0  0  0  0  0
    1.4099   -2.7724   -0.0028 C   0  0  0  0  0  0  0  0  0  0  0  0
   -2.9156    0.7281    0.0003 C   0  0  0  0  0  0  0  0  0  0  0  0
    4.5490    1.0531    0.0010 C   0  0  0  0  0  0  0  0  0  0  0  0
   -2.8650   -1.5689    0.0008 C   0  0  0  0  0  0  0  0  0  0  0  0
    3.7800   -1.5094   -0.0003 H   0  0  0  0  0  0  0  0  0  0  0  0
    0.8557   -3.0703   -0.8987 H   0  0  0  0  0  0  0  0  0  0  0  0
    2.3527   -3.3299    0.0026 H   0  0  0  0  0  0  0  0  0  0  0  0
    0.8448   -3.0729    0.8854 H   0  0  0  0  0  0  0  0  0  0  0  0
    5.0786    0.7072    0.8945 H   0  0  0  0  0  0  0  0  0  0  0  0
    5.0816    0.7038   -0.8894 H   0  0  0  0  0  0  0  0  0  0  0  0
    4.5713    2.1480   -0.0010 H   0  0  0  0  0  0  0  0  0  0  0  0
   -3.4310   -2.4937    0.0009 H   0  0  0  0  0  0  0  0  0  0  0  0
   -3.1344    2.8233   -0.0037 H   0  0  0  0  0  0  0  0  0  0  0  0
   -4.6393    1.9197   -0.0035 H   0  0  0  0  0  0  0  0  0  0  0  0
  1  9  1  0  0  0  0
  1 10  1  0  0  0  0
  2  9  1  0  0  0  0
  2 12  2  0  0  0  0
  3  7  1  0  0  0  0
  3 16  2  0  0  0  0
  4 14  2  0  0  0  0
  4 16  1  0  0  0  0
  5 14  1  0  0  0  0
  5 25  1  0  0  0  0
  5 26  1  0  0  0  0
  6  7  1  0  0  0  0
  6  8  1  0  0  0  0
  6  9  2  0  0  0  0
  7 10  2  0  0  0  0
  8 11  2  0  0  0  0
  8 13  1  0  0  0  0
 10 14  1  0  0  0  0
 11 12  1  0  0  0  0
 11 17  1  0  0  0  0
 12 15  1  0  0  0  0
 13 18  1  0  0  0  0
 13 19  1  0  0  0  0
 13 20  1  0  0  0  0
 15 21  1  0  0  0  0
 15 22  1  0  0  0  0
 15 23  1  0  0  0  0
 16 24  1  0  0  0  0
M  END
> <PUBCHEM_COMPOUND_CID>
695484

> <PUBCHEM_CONFORMER_RMSD>
0.4

> <PUBCHEM_CONFORMER_DIVERSEORDER>
1

> <PUBCHEM_MMFF94_PARTIAL_CHARGES>
19
1 -0.08
10 0.04
11 -0.15
12 0.17
13 0.14
14 0.41
15 0.14
16 0.47
17 0.15
2 -0.57
24 0.15
25 0.4
26 0.4
3 -0.57
4 -0.62
5 -0.9
7 0.26
8 -0.14
9 0.3

> <PUBCHEM_EFFECTIVE_ROTOR_COUNT>
0

> <PUBCHEM_PHARMACOPHORE_FEATURES>
7
1 2 acceptor
1 5 donor
3 3 4 16 cation
3 4 5 14 cation
5 1 6 7 9 10 rings
6 2 6 8 9 11 12 rings
6 3 4 7 10 14 16 rings

> <PUBCHEM_HEAVY_ATOM_COUNT>
16

> <PUBCHEM_ATOM_DEF_STEREO_COUNT>
0

> <PUBCHEM_ATOM_UDEF_STEREO_COUNT>
0

> <PUBCHEM_BOND_DEF_STEREO_COUNT>
0

> <PUBCHEM_BOND_UDEF_STEREO_COUNT>
0

> <PUBCHEM_ISOTOPIC_ATOM_COUNT>
0

> <PUBCHEM_COMPONENT_COUNT>
1

> <PUBCHEM_CACTVS_TAUTO_COUNT>
3

> <PUBCHEM_CONFORMER_ID>
000A9CBC00000001

> <PUBCHEM_MMFF94_ENERGY>
40.7715

> <PUBCHEM_FEATURE_SELFOVERLAP>
35.794

> <PUBCHEM_SHAPE_FINGERPRINT>
10062212 137 18336535084314458130
10411042 1 16969423505439240230
10608611 8 18410853256878835521
10616163 171 18410577322367745255
10967382 1 18338517413336851655
10980938 120 18409731733622574530
11132069 177 18410289220567577408
11471102 20 18410569552776980300
11806522 49 18267018543210572575
12382932 28 18412263917380429627
13140716 1 18337668624936420082
13214271 11 18341045298064773020
13221675 6 18411138047533070150
13380535 21 18410581651747280247
13380535 76 18408321103132984730
13897977 150 18410852127397141941
14144814 61 18410575067662557937
14325111 11 18410856559645252704
15196674 1 18410856542523269382
15219456 202 18411139108368951759
15442244 35 18123470466721374850
15536298 74 18342740685187027662
16945 1 18338517417763746208
18186145 218 18265052444531532165
19107657 46 18410573993762491374
193761 8 18122626050644759014
200 152 18130497635114354735
20201158 50 18409166618900251387
20510252 161 18272374195424245209
20645477 70 18199746955779322135
21267235 1 18410302440139447151
21501502 16 18410288077816184675
2334 1 18338799051543418570
23366157 5 17969226642625265034
23402539 116 18342450496022256572
23402655 69 18342166740265151941
23463225 33 18335419080043718916
23559900 14 18270114583772092238
238 59 16165207148124572629
2748010 2 18338517563666001334
2871803 45 18338510954044110055
3312278 4 18413110562835209241
335352 9 18194683661772976734
34934 24 18410567362486109949
43471831 8 18408037416701862370
4990 188 18059306409131598284
5104073 3 18409730638347821226
528886 8 18411414042421629122
53812653 166 18342454867850674888
7364860 26 18269556035927995326
8809292 202 18261397732310894266
9709674 26 18411423903392818727

> <PUBCHEM_SHAPE_MULTIPOLES>
313.2
6.51
2.44
0.6
0.94
0.73
0
-1.58
0
-0.12
0
0.03
-0.01
0

> <PUBCHEM_SHAPE_SELFOVERLAP>
687.39

> <PUBCHEM_SHAPE_VOLUME>
173.1

> <PUBCHEM_COORDINATE_TYPE>
2
5
10

$$$$
