45482750
  -OEChem-10062122033D

 43 46  0     1  0  0  0  0  0999 V2000
    5.5252   -0.7479    0.1069 S   0  0  2  0  0  0  0  0  0  0  0  0
   -1.1864    3.8512   -0.0479 O   0  0  0  0  0  0  0  0  0  0  0  0
   -2.8389   -2.1384    0.0151 O   0  0  0  0  0  0  0  0  0  0  0  0
    5.7732   -1.1454    1.5356 O   0  0  0  0  0  0  0  0  0  0  0  0
   -1.0945    1.5942   -0.0146 C   0  0  0  0  0  0  0  0  0  0  0  0
    0.2306    2.1041   -0.0030 C   0  0  0  0  0  0  0  0  0  0  0  0
   -1.9278    2.7078   -0.0425 C   0  0  0  0  0  0  0  0  0  0  0  0
    1.4918    1.4251    0.0240 C   0  0  0  0  0  0  0  0  0  0  0  0
   -1.6810    0.3166   -0.0048 C   0  0  0  0  0  0  0  0  0  0  0  0
   -3.0790    0.2183   -0.0236 C   0  0  0  0  0  0  0  0  0  0  0  0
    0.1188    3.4751   -0.0239 C   0  0  0  0  0  0  0  0  0  0  0  0
   -3.3198    2.6419   -0.0617 C   0  0  0  0  0  0  0  0  0  0  0  0
   -3.8816    1.3617   -0.0515 C   0  0  0  0  0  0  0  0  0  0  0  0
   -3.6978   -1.0859   -0.0128 C   0  0  0  0  0  0  0  0  0  0  0  0
    2.4062    1.6119   -1.0126 C   0  0  0  0  0  0  0  0  0  0  0  0
    1.8053    0.5770    1.0862 C   0  0  0  0  0  0  0  0  0  0  0  0
    3.9473    0.1022    0.0748 C   0  0  0  0  0  0  0  0  0  0  0  0
    3.6340    0.9505   -0.9873 C   0  0  0  0  0  0  0  0  0  0  0  0
    3.0330   -0.0846    1.1115 C   0  0  0  0  0  0  0  0  0  0  0  0
   -5.0011   -1.5259   -0.0242 C   0  0  0  0  0  0  0  0  0  0  0  0
   -3.6020   -3.2629    0.0216 C   0  0  0  0  0  0  0  0  0  0  0  0
   -4.9389   -2.9397   -0.0016 C   0  0  0  0  0  0  0  0  0  0  0  0
    5.0081   -2.2427   -0.7783 C   0  0  0  0  0  0  0  0  0  0  0  0
   -2.8771   -4.5411    0.0490 C   0  0  0  0  0  0  0  0  0  0  0  0
    6.1524   -3.2230   -0.9344 C   0  0  0  0  0  0  0  0  0  0  0  0
   -1.0378   -0.5581    0.0155 H   0  0  0  0  0  0  0  0  0  0  0  0
    0.8319    4.2876   -0.0239 H   0  0  0  0  0  0  0  0  0  0  0  0
   -3.9352    3.5334   -0.0832 H   0  0  0  0  0  0  0  0  0  0  0  0
   -4.9669    1.2893   -0.0660 H   0  0  0  0  0  0  0  0  0  0  0  0
    2.1796    2.2649   -1.8523 H   0  0  0  0  0  0  0  0  0  0  0  0
    1.1064    0.4203    1.9045 H   0  0  0  0  0  0  0  0  0  0  0  0
    4.3357    1.1049   -1.8029 H   0  0  0  0  0  0  0  0  0  0  0  0
    3.2514   -0.7436    1.9474 H   0  0  0  0  0  0  0  0  0  0  0  0
   -5.8951   -0.9189   -0.0458 H   0  0  0  0  0  0  0  0  0  0  0  0
    4.6405   -1.9472   -1.7662 H   0  0  0  0  0  0  0  0  0  0  0  0
    4.1864   -2.7122   -0.2280 H   0  0  0  0  0  0  0  0  0  0  0  0
   -5.7671   -3.6340   -0.0028 H   0  0  0  0  0  0  0  0  0  0  0  0
   -2.2320   -4.6360   -0.8299 H   0  0  0  0  0  0  0  0  0  0  0  0
   -2.2514   -4.6089    0.9443 H   0  0  0  0  0  0  0  0  0  0  0  0
   -3.5698   -5.3884    0.0544 H   0  0  0  0  0  0  0  0  0  0  0  0
    5.8201   -4.1107   -1.4815 H   0  0  0  0  0  0  0  0  0  0  0  0
    6.5329   -3.5481    0.0397 H   0  0  0  0  0  0  0  0  0  0  0  0
    6.9852   -2.7752   -1.4870 H   0  0  0  0  0  0  0  0  0  0  0  0
  1  4  2  0  0  0  0
  1 17  1  0  0  0  0
  1 23  1  0  0  0  0
  2  7  1  0  0  0  0
  2 11  1  0  0  0  0
  3 14  1  0  0  0  0
  3 21  1  0  0  0  0
  5  6  1  0  0  0  0
  5  7  2  0  0  0  0
  5  9  1  0  0  0  0
  6  8  1  0  0  0  0
  6 11  2  0  0  0  0
  7 12  1  0  0  0  0
  8 15  2  0  0  0  0
  8 16  1  0  0  0  0
  9 10  2  0  0  0  0
  9 26  1  0  0  0  0
 10 13  1  0  0  0  0
 10 14  1  0  0  0  0
 11 27  1  0  0  0  0
 12 13  2  0  0  0  0
 12 28  1  0  0  0  0
 13 29  1  0  0  0  0
 14 20  2  0  0  0  0
 15 18  1  0  0  0  0
 15 30  1  0  0  0  0
 16 19  2  0  0  0  0
 16 31  1  0  0  0  0
 17 18  2  0  0  0  0
 17 19  1  0  0  0  0
 18 32  1  0  0  0  0
 19 33  1  0  0  0  0
 20 22  1  0  0  0  0
 20 34  1  0  0  0  0
 21 22  2  0  0  0  0
 21 24  1  0  0  0  0
 22 37  1  0  0  0  0
 23 25  1  0  0  0  0
 23 35  1  0  0  0  0
 23 36  1  0  0  0  0
 24 38  1  0  0  0  0
 24 39  1  0  0  0  0
 24 40  1  0  0  0  0
 25 41  1  0  0  0  0
 25 42  1  0  0  0  0
 25 43  1  0  0  0  0
M  END
> <PUBCHEM_COMPOUND_CID>
45482750

> <PUBCHEM_CONFORMER_RMSD>
0.8

> <PUBCHEM_CONFORMER_DIVERSEORDER>
1
13
16
6
11
8
12
2
17
9
5
4
18
10
3
7
15
14

> <PUBCHEM_MMFF94_PARTIAL_CHARGES>
33
1 0.24
10 0.05
11 -0.01
12 -0.15
13 -0.15
14 0.09
15 -0.15
16 -0.15
17 0.06
18 -0.15
19 -0.15
2 -0.28
20 -0.15
21 -0.04
22 -0.15
23 0.19
24 0.18
26 0.15
27 0.15
28 0.15
29 0.15
3 -0.28
30 0.15
31 0.15
32 0.15
33 0.15
34 0.15
37 0.15
4 -0.5
6 -0.05
7 0.14
8 0.05
9 -0.15

> <PUBCHEM_EFFECTIVE_ROTOR_COUNT>
4

> <PUBCHEM_PHARMACOPHORE_FEATURES>
7
1 2 acceptor
1 3 acceptor
1 4 acceptor
5 2 5 6 7 11 rings
5 3 14 20 21 22 rings
6 5 7 9 10 12 13 rings
6 8 15 16 17 18 19 rings

> <PUBCHEM_HEAVY_ATOM_COUNT>
25

> <PUBCHEM_ATOM_DEF_STEREO_COUNT>
1

> <PUBCHEM_ATOM_UDEF_STEREO_COUNT>
0

> <PUBCHEM_BOND_DEF_STEREO_COUNT>
0

> <PUBCHEM_BOND_UDEF_STEREO_COUNT>
0

> <PUBCHEM_ISOTOPIC_ATOM_COUNT>
0

> <PUBCHEM_COMPONENT_COUNT>
1

> <PUBCHEM_CACTVS_TAUTO_COUNT>
1

> <PUBCHEM_CONFORMER_ID>
02B602FE00000001

> <PUBCHEM_MMFF94_ENERGY>
46.6607

> <PUBCHEM_FEATURE_SELFOVERLAP>
35.626

> <PUBCHEM_SHAPE_FINGERPRINT>
10622 236 17823115862182534282
10693767 8 17912066559555959647
10940486 97 18117856399601184724
11186622 123 18262796242851804474
11315621 246 18263085414593687998
117089 54 18339092569762584030
11796584 16 18267018363328023560
12107183 9 18269291217461979307
12553582 1 18264765644322830171
12643181 29 18265893554158653958
12969540 37 17832422373307599101
12990986 174 18410571807756012928
14251751 18 18341898446595897958
14444916 359 17837225783153180529
14863182 85 17111006496376434893
14866123 147 18412832361535967513
15042514 8 18411421683295510333
15142526 21 9043347890396996064
15250474 111 18116425952221784770
15320467 1 17473827221407269958
15352361 1 18338516455728125095
15439362 3 16894826546099988429
15510800 12 17773324439690897886
15927050 60 17981321189158193453
16120349 21 18341062839486436347
17492 89 18411140225788312772
17627616 140 17972312911160598083
17909252 39 18267309922608637008
19301676 85 18338792433691328551
19958102 18 18118675518114198236
20775438 99 17257353671413248971
21307412 95 18340762629451054061
21585480 29 17629460146419368438
23379529 103 18412269432530219070
23559900 14 18339913896374103985
2835820 90 17557447404740945942
3004659 81 18040708220722463778
316301 35 18339637962004730552
325973 47 18048882093407193962
335352 9 18410008863020972181
3383291 50 18411133607370693459
3421961 26 18124314075887568289
3882209 13 17262679658557014862
397830 11 18200012024924987280
44062 13 18337956692503112126
4435113 14 17630063563591648350
463206 1 18262238940368764923
5104073 3 18273213118739037952
56633871 153 18268719479705348331
613672 6 18195220390750543519
70251023 43 18047759475345027745
7970288 3 18339642377084028303

> <PUBCHEM_SHAPE_MULTIPOLES>
500.73
13.22
5.36
0.92
12.84
2.54
-0.11
14.46
0.46
-4.59
0.6
1.22
0.11
0.53

> <PUBCHEM_SHAPE_SELFOVERLAP>
1096.949

> <PUBCHEM_SHAPE_VOLUME>
276.3

> <PUBCHEM_COORDINATE_TYPE>
2
5
10

$$$$
