49830990
  -OEChem-10052115183D

 21 22  0     0  0  0  0  0  0999 V2000
   -0.4322   -2.2645   -0.0498 S   0  0  0  0  0  0  0  0  0  0  0  0
   -3.3282   -1.1039   -0.0475 O   0  0  0  0  0  0  0  0  0  0  0  0
    2.6798    1.5515    0.0633 O   0  0  0  0  0  0  0  0  0  0  0  0
   -0.2134    1.5830   -0.0095 N   0  0  0  0  0  0  0  0  0  0  0  0
    3.7442   -0.4791    0.0132 N   0  0  0  0  0  0  0  0  0  0  0  0
    0.0330    0.2513   -0.0060 C   0  0  0  0  0  0  0  0  0  0  0  0
   -1.5578    2.0626   -0.3147 C   0  0  0  0  0  0  0  0  0  0  0  0
   -2.6368    1.1727    0.3147 C   0  0  0  0  0  0  0  0  0  0  0  0
   -0.9936   -0.6632   -0.0075 C   0  0  0  0  0  0  0  0  0  0  0  0
   -2.3949   -0.3104    0.0423 C   0  0  0  0  0  0  0  0  0  0  0  0
    1.3105   -0.3641    0.0031 C   0  0  0  0  0  0  0  0  0  0  0  0
    1.2036   -1.7402   -0.0241 C   0  0  0  0  0  0  0  0  0  0  0  0
    2.5856    0.3044    0.0224 C   0  0  0  0  0  0  0  0  0  0  0  0
   -1.6835    2.0807   -1.4041 H   0  0  0  0  0  0  0  0  0  0  0  0
   -1.6683    3.0912    0.0444 H   0  0  0  0  0  0  0  0  0  0  0  0
   -3.6204    1.4516   -0.0776 H   0  0  0  0  0  0  0  0  0  0  0  0
   -2.6498    1.3073    1.4030 H   0  0  0  0  0  0  0  0  0  0  0  0
    0.5289    2.2768    0.0057 H   0  0  0  0  0  0  0  0  0  0  0  0
    1.9763   -2.4949   -0.0322 H   0  0  0  0  0  0  0  0  0  0  0  0
    3.7495   -1.4919   -0.0135 H   0  0  0  0  0  0  0  0  0  0  0  0
    4.6563   -0.0342    0.0328 H   0  0  0  0  0  0  0  0  0  0  0  0
  1  9  1  0  0  0  0
  1 12  1  0  0  0  0
  2 10  2  0  0  0  0
  3 13  2  0  0  0  0
  4  6  1  0  0  0  0
  4  7  1  0  0  0  0
  4 18  1  0  0  0  0
  5 13  1  0  0  0  0
  5 20  1  0  0  0  0
  5 21  1  0  0  0  0
  6  9  2  0  0  0  0
  6 11  1  0  0  0  0
  7  8  1  0  0  0  0
  7 14  1  0  0  0  0
  7 15  1  0  0  0  0
  8 10  1  0  0  0  0
  8 16  1  0  0  0  0
  8 17  1  0  0  0  0
  9 10  1  0  0  0  0
 11 12  2  0  0  0  0
 11 13  1  0  0  0  0
 12 19  1  0  0  0  0
M  END
> <PUBCHEM_COMPOUND_CID>
49830990

> <PUBCHEM_CONFORMER_RMSD>
0.6

> <PUBCHEM_CONFORMER_DIVERSEORDER>
1
2
4
3

> <PUBCHEM_MMFF94_PARTIAL_CHARGES>
17
1 -0.08
10 0.59
11 -0.09
12 -0.11
13 0.72
18 0.4
19 0.15
2 -0.57
20 0.37
21 0.37
3 -0.57
4 -0.85
5 -0.8
6 0.08
7 0.37
8 0.06
9 -0.05

> <PUBCHEM_EFFECTIVE_ROTOR_COUNT>
1.6

> <PUBCHEM_PHARMACOPHORE_FEATURES>
7
1 2 acceptor
1 3 acceptor
1 4 cation
1 4 donor
1 5 donor
5 1 6 9 11 12 rings
6 4 6 7 8 9 10 rings

> <PUBCHEM_HEAVY_ATOM_COUNT>
13

> <PUBCHEM_ATOM_DEF_STEREO_COUNT>
0

> <PUBCHEM_ATOM_UDEF_STEREO_COUNT>
0

> <PUBCHEM_BOND_DEF_STEREO_COUNT>
0

> <PUBCHEM_BOND_UDEF_STEREO_COUNT>
0

> <PUBCHEM_ISOTOPIC_ATOM_COUNT>
0

> <PUBCHEM_COMPONENT_COUNT>
1

> <PUBCHEM_CACTVS_TAUTO_COUNT>
10

> <PUBCHEM_CONFORMER_ID>
02F85C4E00000001

> <PUBCHEM_MMFF94_ENERGY>
23.5469

> <PUBCHEM_FEATURE_SELFOVERLAP>
35.589

> <PUBCHEM_SHAPE_FINGERPRINT>
10608611 8 18411697651881404960
108231 29 18272088339596658361
10967382 1 18194401319022889837
11132069 177 18341888606192521289
12032990 46 18337961185039325867
12524768 44 18048040675158747589
12897270 3 18410572855622577117
13380535 21 18196664990258069519
13380535 76 18265893566626642443
13897977 150 18338513015601830341
14325111 11 18411138030569576216
14614273 12 18189047612624718197
15775835 57 18339649931772564240
16945 1 18409732880241744406
193761 8 17978228262210761527
19973954 147 18267022747814477301
20510252 161 18272089409154408376
20871998 184 18200037385720822095
21028194 46 18342458140636729834
21501502 16 18265893549425674331
2334 1 18410573942302141399
23402539 116 18270388494720512335
23402655 69 18125142863459077845
23463225 33 18335137557880448818
23552423 10 18191308182534930567
23559900 14 18272655615832139406
2748010 2 18338519616776517423
43471831 8 18334572391524053602
5084963 1 18202282489695933762
528886 8 18411413982186630915
53812653 166 18270959050986908416
54173680 148 18192715763545648954
6333449 129 18411697656139215189
7364860 26 18053383189015233686

> <PUBCHEM_SHAPE_MULTIPOLES>
249.68
4.71
2.25
0.61
1.55
0.19
0
-0.65
-0.16
-0.49
0.1
-0.06
0
0.02

> <PUBCHEM_SHAPE_SELFOVERLAP>
528.195

> <PUBCHEM_SHAPE_VOLUME>
141.3

> <PUBCHEM_COORDINATE_TYPE>
2
5
10

$$$$
