44406074
  -OEChem-10062121543D

 42 45  0     0  0  0  0  0  0999 V2000
   -0.1630    3.2576   -0.1004 S   0  0  0  0  0  0  0  0  0  0  0  0
   -2.9861    2.5471    0.1803 O   0  0  0  0  0  0  0  0  0  0  0  0
   -2.8181    0.2452    0.4029 N   0  0  0  0  0  0  0  0  0  0  0  0
    3.3651    1.9311   -0.2686 N   0  0  0  0  0  0  0  0  0  0  0  0
    2.5094    3.0055   -0.2985 N   0  0  0  0  0  0  0  0  0  0  0  0
   -4.2357   -0.0154    0.5202 C   0  0  0  0  0  0  0  0  0  0  0  0
   -4.8767   -0.2050   -0.8588 C   0  0  0  0  0  0  0  0  0  0  0  0
   -4.5009   -1.2222    1.4267 C   0  0  0  0  0  0  0  0  0  0  0  0
   -4.4800   -1.5294   -1.5112 C   0  0  0  0  0  0  0  0  0  0  0  0
   -4.1047   -2.5448    0.7705 C   0  0  0  0  0  0  0  0  0  0  0  0
   -4.7637   -2.7157   -0.5948 C   0  0  0  0  0  0  0  0  0  0  0  0
   -2.3098    1.5237    0.2407 C   0  0  0  0  0  0  0  0  0  0  0  0
   -0.8332    1.6207    0.1090 C   0  0  0  0  0  0  0  0  0  0  0  0
    1.4159    1.0390   -0.0231 C   0  0  0  0  0  0  0  0  0  0  0  0
    0.0957    0.5626    0.1313 C   0  0  0  0  0  0  0  0  0  0  0  0
    1.3601    2.4142   -0.1476 C   0  0  0  0  0  0  0  0  0  0  0  0
    2.7246    0.7036   -0.1003 C   0  0  0  0  0  0  0  0  0  0  0  0
    3.4229   -0.5517   -0.0392 C   0  0  0  0  0  0  0  0  0  0  0  0
    2.8011   -1.7180   -0.4852 C   0  0  0  0  0  0  0  0  0  0  0  0
    4.7218   -0.6033    0.4664 C   0  0  0  0  0  0  0  0  0  0  0  0
    3.4784   -2.9360   -0.4258 C   0  0  0  0  0  0  0  0  0  0  0  0
    5.3992   -1.8213    0.5259 C   0  0  0  0  0  0  0  0  0  0  0  0
    4.7776   -2.9876    0.0795 C   0  0  0  0  0  0  0  0  0  0  0  0
   -4.6914    0.8663    0.9879 H   0  0  0  0  0  0  0  0  0  0  0  0
   -4.6078    0.6224   -1.5262 H   0  0  0  0  0  0  0  0  0  0  0  0
   -5.9685   -0.1808   -0.7494 H   0  0  0  0  0  0  0  0  0  0  0  0
   -5.5704   -1.2566    1.6706 H   0  0  0  0  0  0  0  0  0  0  0  0
   -3.9618   -1.1115    2.3753 H   0  0  0  0  0  0  0  0  0  0  0  0
   -3.4136   -1.5110   -1.7669 H   0  0  0  0  0  0  0  0  0  0  0  0
   -5.0287   -1.6530   -2.4518 H   0  0  0  0  0  0  0  0  0  0  0  0
   -4.3968   -3.3760    1.4228 H   0  0  0  0  0  0  0  0  0  0  0  0
   -3.0153   -2.6010    0.6622 H   0  0  0  0  0  0  0  0  0  0  0  0
   -5.8476   -2.8239   -0.4647 H   0  0  0  0  0  0  0  0  0  0  0  0
   -4.4055   -3.6387   -1.0644 H   0  0  0  0  0  0  0  0  0  0  0  0
   -2.1973   -0.5554    0.3868 H   0  0  0  0  0  0  0  0  0  0  0  0
   -0.1648   -0.4799    0.2536 H   0  0  0  0  0  0  0  0  0  0  0  0
    4.3563    2.1090   -0.3754 H   0  0  0  0  0  0  0  0  0  0  0  0
    1.7944   -1.7068   -0.8946 H   0  0  0  0  0  0  0  0  0  0  0  0
    5.2293    0.2861    0.8315 H   0  0  0  0  0  0  0  0  0  0  0  0
    2.9956   -3.8439   -0.7754 H   0  0  0  0  0  0  0  0  0  0  0  0
    6.4098   -1.8623    0.9217 H   0  0  0  0  0  0  0  0  0  0  0  0
    5.3050   -3.9358    0.1257 H   0  0  0  0  0  0  0  0  0  0  0  0
  1 13  1  0  0  0  0
  1 16  1  0  0  0  0
  2 12  2  0  0  0  0
  3  6  1  0  0  0  0
  3 12  1  0  0  0  0
  3 35  1  0  0  0  0
  4  5  1  0  0  0  0
  4 17  1  0  0  0  0
  4 37  1  0  0  0  0
  5 16  2  0  0  0  0
  6  7  1  0  0  0  0
  6  8  1  0  0  0  0
  6 24  1  0  0  0  0
  7  9  1  0  0  0  0
  7 25  1  0  0  0  0
  7 26  1  0  0  0  0
  8 10  1  0  0  0  0
  8 27  1  0  0  0  0
  8 28  1  0  0  0  0
  9 11  1  0  0  0  0
  9 29  1  0  0  0  0
  9 30  1  0  0  0  0
 10 11  1  0  0  0  0
 10 31  1  0  0  0  0
 10 32  1  0  0  0  0
 11 33  1  0  0  0  0
 11 34  1  0  0  0  0
 12 13  1  0  0  0  0
 13 15  2  0  0  0  0
 14 15  1  0  0  0  0
 14 16  1  0  0  0  0
 14 17  2  0  0  0  0
 15 36  1  0  0  0  0
 17 18  1  0  0  0  0
 18 19  2  0  0  0  0
 18 20  1  0  0  0  0
 19 21  1  0  0  0  0
 19 38  1  0  0  0  0
 20 22  2  0  0  0  0
 20 39  1  0  0  0  0
 21 23  2  0  0  0  0
 21 40  1  0  0  0  0
 22 23  1  0  0  0  0
 22 41  1  0  0  0  0
 23 42  1  0  0  0  0
M  END
> <PUBCHEM_COMPOUND_CID>
44406074

> <PUBCHEM_CONFORMER_RMSD>
0.8

> <PUBCHEM_CONFORMER_DIVERSEORDER>
1
10
19
2
17
4
7
8
3
9
16
12
6
11
15
5
13
18
14
21
22
20
23
24

> <PUBCHEM_MMFF94_PARTIAL_CHARGES>
26
1 -0.11
12 0.71
13 -0.05
14 -0.01
15 -0.15
16 0.39
17 -0.2
18 0.05
19 -0.15
2 -0.57
20 -0.15
21 -0.15
22 -0.15
23 -0.15
3 -0.73
35 0.37
36 0.15
37 0.27
38 0.15
39 0.15
4 0.3
40 0.15
41 0.15
42 0.15
5 -0.73
6 0.3

> <PUBCHEM_EFFECTIVE_ROTOR_COUNT>
5.2

> <PUBCHEM_PHARMACOPHORE_FEATURES>
8
1 2 acceptor
1 3 donor
1 4 donor
1 5 acceptor
5 1 13 14 15 16 rings
5 4 5 14 16 17 rings
6 18 19 20 21 22 23 rings
6 6 7 8 9 10 11 rings

> <PUBCHEM_HEAVY_ATOM_COUNT>
23

> <PUBCHEM_ATOM_DEF_STEREO_COUNT>
0

> <PUBCHEM_ATOM_UDEF_STEREO_COUNT>
0

> <PUBCHEM_BOND_DEF_STEREO_COUNT>
0

> <PUBCHEM_BOND_UDEF_STEREO_COUNT>
0

> <PUBCHEM_ISOTOPIC_ATOM_COUNT>
0

> <PUBCHEM_COMPONENT_COUNT>
1

> <PUBCHEM_CACTVS_TAUTO_COUNT>
7

> <PUBCHEM_CONFORMER_ID>
02A5953A00000001

> <PUBCHEM_MMFF94_ENERGY>
68.8856

> <PUBCHEM_FEATURE_SELFOVERLAP>
40.864

> <PUBCHEM_SHAPE_FINGERPRINT>
10622 236 17772730901012218447
108634 29 17533506887021808170
10928967 22 18126299768370768407
11070050 100 17343769672145021216
11135926 11 18192153917319584716
11405975 8 18342182133275323793
11595378 159 14692579770945318963
11796584 16 17821999926419995625
12107183 9 18269570347096688401
12422481 6 17346319250209084334
12596602 18 16773795926385740706
14429380 30 18408323280882214722
1454969 45 18409728496166870556
14681488 357 17916321458531985934
14790565 3 17616538797228028012
14848178 5 18411973667870195547
14866123 147 18122629349517753161
15250474 111 18271806873574054447
15352361 1 18410293584011763442
17492 89 18410013281888328147
17857418 61 18342173366972310943
19141452 34 18196657280729093465
19315092 285 17202192118171958843
20028762 73 18201433688321644142
20567600 70 18335136492939855146
20645477 70 18260828262454452441
221490 88 18335988643956755777
22393880 68 17822278081608382667
22620623 9 17023454244971373269
23379529 103 18197508324546661598
23559900 14 18409160039295580465
23572383 38 18335691797492676475
314194 84 18339928224231308105
3246872 21 18410849936954310762
325973 47 18338238274928962467
3421961 26 18411139164530847224
4280585 95 18261944142498025146
44062 13 18263082128553705853
46194498 28 17243288598864230871
463206 1 18408610257622133579
5104073 3 18272093790000172561
5365585 94 18187655734110139907
5486654 36 18264220131609713217
559249 180 18266175037888764513
6431902 208 18410291414963984898
6433294 58 18338802345810202130
7970288 3 18265048034033421786
88748 71 18335990808905064147
9709674 26 18261680367065496299

> <PUBCHEM_SHAPE_MULTIPOLES>
456.37
12.81
4.29
0.95
2.47
0.53
0.02
-12.17
-0.28
-1.47
0.3
1.11
-0.43
-0.4

> <PUBCHEM_SHAPE_SELFOVERLAP>
984.487

> <PUBCHEM_SHAPE_VOLUME>
253.5

> <PUBCHEM_COORDINATE_TYPE>
2
5
10

$$$$
