136027076
  -OEChem-10052120443D

 31 33  0     0  0  0  0  0  0999 V2000
   -5.1924   -0.7762   -0.2007 F   0  0  0  0  0  0  0  0  0  0  0  0
   -4.1700   -0.0942   -1.9944 F   0  0  0  0  0  0  0  0  0  0  0  0
   -3.6349   -1.9969   -1.1019 F   0  0  0  0  0  0  0  0  0  0  0  0
    5.5451   -1.3145   -0.2069 O   0  0  0  0  0  0  0  0  0  0  0  0
    1.0375    2.0381   -0.7737 N   0  0  0  0  0  0  0  0  0  0  0  0
    4.0805    0.3900   -0.7287 N   0  0  0  0  0  0  0  0  0  0  0  0
    2.3367    2.0380   -1.1408 N   0  0  0  0  0  0  0  0  0  0  0  0
    1.7876    0.1719    0.0389 C   0  0  0  0  0  0  0  0  0  0  0  0
    0.6555    0.9342   -0.0599 C   0  0  0  0  0  0  0  0  0  0  0  0
    2.7917    0.8878   -0.6379 C   0  0  0  0  0  0  0  0  0  0  0  0
    2.0715   -1.0791    0.6455 C   0  0  0  0  0  0  0  0  0  0  0  0
   -0.6983    0.7740    0.4098 C   0  0  0  0  0  0  0  0  0  0  0  0
   -1.6434    0.1326   -0.3910 C   0  0  0  0  0  0  0  0  0  0  0  0
    3.3205   -1.5767    0.5658 C   0  0  0  0  0  0  0  0  0  0  0  0
   -1.0628    1.2604    1.6654 C   0  0  0  0  0  0  0  0  0  0  0  0
   -2.9530   -0.0226    0.0638 C   0  0  0  0  0  0  0  0  0  0  0  0
    0.9663   -1.7981    1.3526 C   0  0  0  0  0  0  0  0  0  0  0  0
    4.4157   -0.8299   -0.1535 C   0  0  0  0  0  0  0  0  0  0  0  0
   -2.3724    1.1054    2.1201 C   0  0  0  0  0  0  0  0  0  0  0  0
   -3.3174    0.4638    1.3194 C   0  0  0  0  0  0  0  0  0  0  0  0
   -3.9641   -0.7081   -0.7919 C   0  0  0  0  0  0  0  0  0  0  0  0
    0.4672    2.8289   -1.0469 H   0  0  0  0  0  0  0  0  0  0  0  0
   -1.3654   -0.2497   -1.3712 H   0  0  0  0  0  0  0  0  0  0  0  0
    4.7728    0.9401   -1.2263 H   0  0  0  0  0  0  0  0  0  0  0  0
    3.5909   -2.5280    1.0116 H   0  0  0  0  0  0  0  0  0  0  0  0
   -0.3379    1.7621    2.3021 H   0  0  0  0  0  0  0  0  0  0  0  0
    0.1488   -2.0419    0.6670 H   0  0  0  0  0  0  0  0  0  0  0  0
    0.5792   -1.2070    2.1883 H   0  0  0  0  0  0  0  0  0  0  0  0
    1.3153   -2.7477    1.7750 H   0  0  0  0  0  0  0  0  0  0  0  0
   -2.6559    1.4839    3.0978 H   0  0  0  0  0  0  0  0  0  0  0  0
   -4.3318    0.3532    1.6925 H   0  0  0  0  0  0  0  0  0  0  0  0
  1 21  1  0  0  0  0
  2 21  1  0  0  0  0
  3 21  1  0  0  0  0
  4 18  2  0  0  0  0
  5  7  1  0  0  0  0
  5  9  1  0  0  0  0
  5 22  1  0  0  0  0
  6 10  1  0  0  0  0
  6 18  1  0  0  0  0
  6 24  1  0  0  0  0
  7 10  2  0  0  0  0
  8  9  2  0  0  0  0
  8 10  1  0  0  0  0
  8 11  1  0  0  0  0
  9 12  1  0  0  0  0
 11 14  2  0  0  0  0
 11 17  1  0  0  0  0
 12 13  2  0  0  0  0
 12 15  1  0  0  0  0
 13 16  1  0  0  0  0
 13 23  1  0  0  0  0
 14 18  1  0  0  0  0
 14 25  1  0  0  0  0
 15 19  2  0  0  0  0
 15 26  1  0  0  0  0
 16 20  2  0  0  0  0
 16 21  1  0  0  0  0
 17 27  1  0  0  0  0
 17 28  1  0  0  0  0
 17 29  1  0  0  0  0
 19 20  1  0  0  0  0
 19 30  1  0  0  0  0
 20 31  1  0  0  0  0
M  END
> <PUBCHEM_COMPOUND_CID>
136027076

> <PUBCHEM_CONFORMER_RMSD>
0.6

> <PUBCHEM_CONFORMER_DIVERSEORDER>
2
1

> <PUBCHEM_MMFF94_PARTIAL_CHARGES>
28
1 -0.34
10 0.35
11 -0.09
12 0.05
13 -0.15
14 -0.14
15 -0.15
16 -0.14
17 0.14
18 0.62
19 -0.15
2 -0.34
20 -0.15
21 1.16
22 0.27
23 0.15
24 0.37
25 0.15
26 0.15
3 -0.34
30 0.15
31 0.15
4 -0.57
5 0.3
6 -0.49
7 -0.71
8 -0.05
9 -0.2

> <PUBCHEM_EFFECTIVE_ROTOR_COUNT>
2

> <PUBCHEM_PHARMACOPHORE_FEATURES>
6
1 4 acceptor
1 5 donor
1 6 donor
5 5 7 8 9 10 rings
6 12 13 15 16 19 20 rings
6 6 8 10 11 14 18 rings

> <PUBCHEM_HEAVY_ATOM_COUNT>
21

> <PUBCHEM_ATOM_DEF_STEREO_COUNT>
0

> <PUBCHEM_ATOM_UDEF_STEREO_COUNT>
0

> <PUBCHEM_BOND_DEF_STEREO_COUNT>
0

> <PUBCHEM_BOND_UDEF_STEREO_COUNT>
0

> <PUBCHEM_ISOTOPIC_ATOM_COUNT>
0

> <PUBCHEM_COMPONENT_COUNT>
1

> <PUBCHEM_CACTVS_TAUTO_COUNT>
-1

> <PUBCHEM_CONFORMER_ID>
081B9BC400000002

> <PUBCHEM_MMFF94_ENERGY>
46.066

> <PUBCHEM_FEATURE_SELFOVERLAP>
30.563

> <PUBCHEM_SHAPE_FINGERPRINT>
10366900 7 16877941628886844647
11046707 91 18059855056221392233
11578080 2 18199160967500791833
11582403 64 16594466855432624945
11806522 49 18412261736054007848
12236239 1 18343309153851671113
12553582 1 18115032900758394178
12596599 1 18341625797254767294
13583140 156 15791737446656538256
13760787 5 18114196219838971388
13862211 1 18115025209052592418
13911987 19 17531549623860777710
14178342 30 17059511629176425681
14576447 43 18408037407995831018
14787075 74 18272932761028609696
15375358 24 16588024623441552264
15653759 3 15769777926937216115
16752209 62 17845926365061600407
17349148 13 18409168796828498530
17357779 13 17530969051255523332
17862501 102 18202567259123472512
1813 80 18265914475054811276
18186145 218 16587743140138975881
18222031 100 18335416830008454642
18915474 69 18343300413519448679
19784866 240 18411984650196328687
19862831 5 18409727382889314415
200 152 18408886221986686401
20645477 56 13840270277701289681
20645477 70 17967817167090760164
22112679 90 18059587866353894457
221357 26 17749379365633996725
221490 88 18042413602012453834
22393880 68 17894621582718489091
22646028 1 18343023289307503504
22646028 28 18272652346206882223
23402539 116 18336550409063523954
23503958 8 17632298934469298226
23557571 272 16271935878306393793
23559900 14 17703781531191515728
238 59 17749105608069814947
2838139 119 13192066456627827654
2871803 45 18040714736667880302
3286 77 17989200431005630712
46194498 28 17313385685943860359
474 4 18126002913237977096
602551 16 16702302364564232374
7471813 234 18342175570407195416
7495541 125 16200425880193754370
77492 1 18271538532222167625
7970288 3 17632006572267932231
9981440 41 17477196606413628088

> <PUBCHEM_SHAPE_MULTIPOLES>
389.54
9.53
1.85
1.53
0.51
0.02
-0.31
4.03
2.65
0.73
0.08
-1.58
-0.21
-1.76

> <PUBCHEM_SHAPE_SELFOVERLAP>
867.734

> <PUBCHEM_SHAPE_VOLUME>
209.3

> <PUBCHEM_COORDINATE_TYPE>
2
5
10

$$$$
