14802483
  -OEChem-10062121593D

 46 48  0     0  0  0  0  0  0999 V2000
    1.9221    2.1445    0.0691 S   0  0  0  0  0  0  0  0  0  0  0  0
    2.6069    2.3025    1.3342 O   0  0  0  0  0  0  0  0  0  0  0  0
    1.9303    3.2009   -0.9203 O   0  0  0  0  0  0  0  0  0  0  0  0
   -6.4592   -1.0523   -1.0961 O   0  0  0  0  0  0  0  0  0  0  0  0
   -6.3327   -0.4420    1.1253 O   0  0  0  0  0  0  0  0  0  0  0  0
    0.3028    1.6724    0.3650 N   0  0  0  0  0  0  0  0  0  0  0  0
   -2.1477    0.1864    0.6008 N   0  0  0  0  0  0  0  0  0  0  0  0
    4.2821   -2.5017    1.4502 N   0  0  0  0  0  0  0  0  0  0  0  0
   -0.4905    1.3095   -0.8437 C   0  0  0  0  0  0  0  0  0  0  0  0
    0.1144    0.6773    1.4586 C   0  0  0  0  0  0  0  0  0  0  0  0
   -1.9654    1.1807   -0.4661 C   0  0  0  0  0  0  0  0  0  0  0  0
   -1.3723    0.5608    1.7918 C   0  0  0  0  0  0  0  0  0  0  0  0
   -3.5644    0.0431    0.9336 C   0  0  0  0  0  0  0  0  0  0  0  0
    2.5358    0.6773   -0.6973 C   0  0  0  0  0  0  0  0  0  0  0  0
   -4.3471   -0.4497   -0.2800 C   0  0  0  0  0  0  0  0  0  0  0  0
    3.1126   -0.3665    0.0358 C   0  0  0  0  0  0  0  0  0  0  0  0
    2.4188    0.6063   -2.0828 C   0  0  0  0  0  0  0  0  0  0  0  0
    3.5792   -1.5048   -0.6537 C   0  0  0  0  0  0  0  0  0  0  0  0
   -5.8145   -0.6358    0.0342 C   0  0  0  0  0  0  0  0  0  0  0  0
    2.8812   -0.5196   -2.7602 C   0  0  0  0  0  0  0  0  0  0  0  0
    3.2411   -0.3184    1.4287 C   0  0  0  0  0  0  0  0  0  0  0  0
    3.4595   -1.5725   -2.0516 C   0  0  0  0  0  0  0  0  0  0  0  0
    4.1493   -2.5290    0.1050 C   0  0  0  0  0  0  0  0  0  0  0  0
    3.8242   -1.3967    2.0765 C   0  0  0  0  0  0  0  0  0  0  0  0
   -7.8665   -1.2725   -0.9572 C   0  0  0  0  0  0  0  0  0  0  0  0
   -0.1507    0.3552   -1.2589 H   0  0  0  0  0  0  0  0  0  0  0  0
   -0.3898    2.0881   -1.6068 H   0  0  0  0  0  0  0  0  0  0  0  0
    0.6359    1.0043    2.3629 H   0  0  0  0  0  0  0  0  0  0  0  0
    0.4865   -0.3057    1.1549 H   0  0  0  0  0  0  0  0  0  0  0  0
   -2.3577    2.1595   -0.1596 H   0  0  0  0  0  0  0  0  0  0  0  0
   -2.4714    0.8908   -1.3906 H   0  0  0  0  0  0  0  0  0  0  0  0
   -1.4916   -0.2024    2.5702 H   0  0  0  0  0  0  0  0  0  0  0  0
   -1.7334    1.5122    2.2051 H   0  0  0  0  0  0  0  0  0  0  0  0
   -3.9870    0.9887    1.2991 H   0  0  0  0  0  0  0  0  0  0  0  0
   -3.6797   -0.6893    1.7431 H   0  0  0  0  0  0  0  0  0  0  0  0
   -3.9464   -1.4086   -0.6281 H   0  0  0  0  0  0  0  0  0  0  0  0
   -4.3287    0.2738   -1.0999 H   0  0  0  0  0  0  0  0  0  0  0  0
    1.9715    1.4060   -2.6660 H   0  0  0  0  0  0  0  0  0  0  0  0
    2.7906   -0.5787   -3.8410 H   0  0  0  0  0  0  0  0  0  0  0  0
    2.8804    0.4347    2.1030 H   0  0  0  0  0  0  0  0  0  0  0  0
    3.8149   -2.4443   -2.5962 H   0  0  0  0  0  0  0  0  0  0  0  0
    4.5285   -3.4331   -0.3636 H   0  0  0  0  0  0  0  0  0  0  0  0
    3.9275   -1.4058    3.1570 H   0  0  0  0  0  0  0  0  0  0  0  0
   -8.2566   -1.5995   -1.9247 H   0  0  0  0  0  0  0  0  0  0  0  0
   -8.3689   -0.3433   -0.6718 H   0  0  0  0  0  0  0  0  0  0  0  0
   -8.0559   -2.0574   -0.2187 H   0  0  0  0  0  0  0  0  0  0  0  0
  1  2  2  0  0  0  0
  1  3  2  0  0  0  0
  1  6  1  0  0  0  0
  1 14  1  0  0  0  0
  4 19  1  0  0  0  0
  4 25  1  0  0  0  0
  5 19  2  0  0  0  0
  6  9  1  0  0  0  0
  6 10  1  0  0  0  0
  7 11  1  0  0  0  0
  7 12  1  0  0  0  0
  7 13  1  0  0  0  0
  8 23  2  0  0  0  0
  8 24  1  0  0  0  0
  9 11  1  0  0  0  0
  9 26  1  0  0  0  0
  9 27  1  0  0  0  0
 10 12  1  0  0  0  0
 10 28  1  0  0  0  0
 10 29  1  0  0  0  0
 11 30  1  0  0  0  0
 11 31  1  0  0  0  0
 12 32  1  0  0  0  0
 12 33  1  0  0  0  0
 13 15  1  0  0  0  0
 13 34  1  0  0  0  0
 13 35  1  0  0  0  0
 14 16  1  0  0  0  0
 14 17  2  0  0  0  0
 15 19  1  0  0  0  0
 15 36  1  0  0  0  0
 15 37  1  0  0  0  0
 16 18  2  0  0  0  0
 16 21  1  0  0  0  0
 17 20  1  0  0  0  0
 17 38  1  0  0  0  0
 18 22  1  0  0  0  0
 18 23  1  0  0  0  0
 20 22  2  0  0  0  0
 20 39  1  0  0  0  0
 21 24  2  0  0  0  0
 21 40  1  0  0  0  0
 22 41  1  0  0  0  0
 23 42  1  0  0  0  0
 24 43  1  0  0  0  0
 25 44  1  0  0  0  0
 25 45  1  0  0  0  0
 25 46  1  0  0  0  0
M  END
> <PUBCHEM_COMPOUND_CID>
14802483

> <PUBCHEM_CONFORMER_RMSD>
0.8

> <PUBCHEM_CONFORMER_DIVERSEORDER>
2
36
213
56
12
91
100
30
75
55
230
25
130
62
145
200
212
140
180
93
108
184
176
15
139
165
237
151
216
224
275
29
270
126
102
251
110
156
104
147
14
124
267
99
33
26
18
227
204
87
152
193
233
256
119
50
245
228
70
44
265
173
38
263
112
105
76
238
45
22
239
146
257
11
252
59
207
186
274
268
178
209
240
79
115
194
272
158
148
127
208
98
103
125
10
74
90
196
134
236
162
88
149
24
250
42
183
167
92
117
226
191
255
48
57
179
269
49
192
246
32
97
109
155
80
113
114
64
46
229
47
17
96
241
20
175
53
72
81
84
67
6
69
225
189
3
264
61
141
85
247
169
222
13
244
219
197
187
188
160
181
107
19
171
177
248
40
201
132
199
34
60
185
253
52
71
249
266
164
243
31
16
116
153
150
232
166
118
4
203
66
142
39
242
262
202
1
7
161
234
144
129
214
168
157
259
28
35
260
86
254
190
106
9
120
77
8
78
138
58
121
174
198
159
63
123
89
43
51
65
235
223
206
5
101
195
215
135
41
21
128
210
163
182
131
217
143
68
154
172
133
271
261
37
27
258
94
211
122
23
95
54
137
73
218
170
221
83
82
273
136
231
111
220
205

> <PUBCHEM_MMFF94_PARTIAL_CHARGES>
29
1 1.45
10 0.36
11 0.27
12 0.27
13 0.27
14 -0.01
15 0.06
17 -0.15
19 0.66
2 -0.65
20 -0.15
21 -0.15
22 -0.15
23 0.16
24 0.16
25 0.28
3 -0.65
38 0.15
39 0.15
4 -0.43
40 0.15
41 0.15
42 0.15
43 0.15
5 -0.57
6 -0.85
7 -0.81
8 -0.62
9 0.36

> <PUBCHEM_EFFECTIVE_ROTOR_COUNT>
7.2

> <PUBCHEM_PHARMACOPHORE_FEATURES>
8
1 2 acceptor
1 3 acceptor
1 5 acceptor
1 7 cation
1 8 acceptor
6 14 16 17 18 20 22 rings
6 6 7 9 10 11 12 rings
6 8 16 18 21 23 24 rings

> <PUBCHEM_HEAVY_ATOM_COUNT>
25

> <PUBCHEM_ATOM_DEF_STEREO_COUNT>
0

> <PUBCHEM_ATOM_UDEF_STEREO_COUNT>
0

> <PUBCHEM_BOND_DEF_STEREO_COUNT>
0

> <PUBCHEM_BOND_UDEF_STEREO_COUNT>
0

> <PUBCHEM_ISOTOPIC_ATOM_COUNT>
0

> <PUBCHEM_COMPONENT_COUNT>
1

> <PUBCHEM_CACTVS_TAUTO_COUNT>
1

> <PUBCHEM_CONFORMER_ID>
00E1DE3300000002

> <PUBCHEM_MMFF94_ENERGY>
58.1583

> <PUBCHEM_FEATURE_SELFOVERLAP>
40.642

> <PUBCHEM_SHAPE_FINGERPRINT>
10378564 45 16298100973924660655
10498660 4 11458723697928590734
10554248 39 12397115134692888035
10670039 82 14707478145465513967
11069576 57 17823143324356729682
11720765 8 15719386201742021934
11796584 16 18271530892256088999
12363563 72 18337674088440697488
12633257 1 13398341309827686140
12892183 10 15769777896925186227
13533116 47 18272088331507734345
13782708 43 18272089453196143127
14211702 104 18129098000184641479
14251740 57 16988572277050080335
14251751 18 18342732984410808279
14341114 328 14260763102276045166
14347332 77 18410853240648467253
14528608 73 13695587772033261291
14537116 161 15285350718339567031
14848178 5 18060419101882351031
15183329 4 16371005175068331991
15210252 30 8141790699592834886
15342168 16 10087633789087477881
15419008 42 17415564212758775037
15664445 248 16951139506677668628
17134984 74 18340206422702360191
1813 80 18272091582618862769
19377110 9 12607106423469489405
1979834 28 15698005141160998015
20369508 70 18334014999321116384
20567600 234 12103840160290144779
20567600 9 12685087051774753543
20626108 58 18340209587781611488
20645477 70 18410580621039752661
20775438 99 17970339532612360915
20775530 9 17464263725303598106
21049683 118 17054967584396463464
21421861 104 17560798857361847584
21641784 216 15213566881211017487
21756936 100 14187280589115053322
22061861 79 18334288791339780583
2303208 19 17386012810547689539
23559900 14 16558487334694338981
238 59 15070064133854243730
3004659 81 18060145366331017853
34797466 226 15430327970696500179
427121 178 14261343674696507820
46194498 28 16298108687475122782
463206 1 18186805729542970826
5104073 3 14835857149189998275
57359948 33 17458335360390406645
57527573 199 15393972931513200000
59682541 52 17894622657161913615
6443934 186 12607109739020295967
7808743 9 10158821686903239578
8988823 20 18272645792276809689
960060 61 17603875506813926023
9862260 156 13695855996867091736

> <PUBCHEM_SHAPE_MULTIPOLES>
479.92
14.25
2.52
2.19
36.88
0.69
0.43
-11.18
1.22
-3.08
0.07
-2.43
-0.49
-1.07

> <PUBCHEM_SHAPE_SELFOVERLAP>
1005.766

> <PUBCHEM_SHAPE_VOLUME>
271.6

> <PUBCHEM_COORDINATE_TYPE>
2
5
10

$$$$
