46929857
  -OEChem-10052115143D

 61 66  0     0  0  0  0  0  0999 V2000
   -9.2746   -3.3017    1.4115 F   0  0  0  0  0  0  0  0  0  0  0  0
    3.8921    0.3077   -0.3476 O   0  0  0  0  0  0  0  0  0  0  0  0
   -1.4256    1.7194   -1.1190 N   0  0  0  0  0  0  0  0  0  0  0  0
   -3.7860   -0.8828   -0.2768 N   0  0  0  0  0  0  0  0  0  0  0  0
   -2.6428   -0.2428   -0.6383 N   0  0  0  0  0  0  0  0  0  0  0  0
    3.3826   -1.6254   -1.5242 N   0  0  0  0  0  0  0  0  0  0  0  0
    6.2902   -0.2318    1.2939 N   0  0  0  0  0  0  0  0  0  0  0  0
    8.3414    1.0220    1.4614 N   0  0  0  0  0  0  0  0  0  0  0  0
    6.8987    0.8210    3.3006 N   0  0  0  0  0  0  0  0  0  0  0  0
   -4.9432    1.2278   -0.1171 C   0  0  0  0  0  0  0  0  0  0  0  0
   -3.7632    1.8885   -0.4903 C   0  0  0  0  0  0  0  0  0  0  0  0
   -4.8983   -0.1589   -0.0257 C   0  0  0  0  0  0  0  0  0  0  0  0
   -2.6423    1.1041   -0.7392 C   0  0  0  0  0  0  0  0  0  0  0  0
   -6.0335   -0.9755    0.3469 C   0  0  0  0  0  0  0  0  0  0  0  0
   -6.1041    1.9743    0.1456 C   0  0  0  0  0  0  0  0  0  0  0  0
   -3.7552    3.2894   -0.5973 C   0  0  0  0  0  0  0  0  0  0  0  0
   -0.0806    1.3636   -0.9233 C   0  0  0  0  0  0  0  0  0  0  0  0
   -6.0858    3.3653    0.0365 C   0  0  0  0  0  0  0  0  0  0  0  0
   -4.9135    4.0216   -0.3342 C   0  0  0  0  0  0  0  0  0  0  0  0
   -6.8998   -1.4562   -0.6352 C   0  0  0  0  0  0  0  0  0  0  0  0
   -6.2622   -1.2808    1.6886 C   0  0  0  0  0  0  0  0  0  0  0  0
    0.8832    1.7374   -1.8599 C   0  0  0  0  0  0  0  0  0  0  0  0
    0.2907    0.6353    0.2069 C   0  0  0  0  0  0  0  0  0  0  0  0
    2.5894    0.6542   -0.5362 C   0  0  0  0  0  0  0  0  0  0  0  0
    2.2182    1.3826   -1.6664 C   0  0  0  0  0  0  0  0  0  0  0  0
    1.6257    0.2805    0.4004 C   0  0  0  0  0  0  0  0  0  0  0  0
   -7.9946   -2.2417   -0.2756 C   0  0  0  0  0  0  0  0  0  0  0  0
   -7.3572   -2.0664    2.0483 C   0  0  0  0  0  0  0  0  0  0  0  0
    5.6340   -1.3046   -0.7036 C   0  0  0  0  0  0  0  0  0  0  0  0
    4.3188   -0.9018   -0.8702 C   0  0  0  0  0  0  0  0  0  0  0  0
   -8.2234   -2.5469    1.0662 C   0  0  0  0  0  0  0  0  0  0  0  0
    6.6000   -0.4957    0.0075 C   0  0  0  0  0  0  0  0  0  0  0  0
    6.0130   -2.5289   -1.2430 C   0  0  0  0  0  0  0  0  0  0  0  0
    7.7457   -0.0422   -0.6137 C   0  0  0  0  0  0  0  0  0  0  0  0
    5.0783   -3.3020   -1.9229 C   0  0  0  0  0  0  0  0  0  0  0  0
    3.7879   -2.8098   -2.0348 C   0  0  0  0  0  0  0  0  0  0  0  0
    7.1916    0.5214    1.9524 C   0  0  0  0  0  0  0  0  0  0  0  0
    8.5882    0.7198    0.1698 C   0  0  0  0  0  0  0  0  0  0  0  0
    5.7164    0.3597    3.9582 C   0  0  0  0  0  0  0  0  0  0  0  0
   -7.0381    1.5011    0.4373 H   0  0  0  0  0  0  0  0  0  0  0  0
   -2.8624    3.8429   -0.8754 H   0  0  0  0  0  0  0  0  0  0  0  0
   -1.5509    2.4390   -1.8258 H   0  0  0  0  0  0  0  0  0  0  0  0
   -6.9861    3.9374    0.2412 H   0  0  0  0  0  0  0  0  0  0  0  0
   -4.9013    5.1046   -0.4166 H   0  0  0  0  0  0  0  0  0  0  0  0
   -6.7354   -1.2272   -1.6855 H   0  0  0  0  0  0  0  0  0  0  0  0
   -5.5965   -0.9139    2.4663 H   0  0  0  0  0  0  0  0  0  0  0  0
    0.6076    2.3043   -2.7455 H   0  0  0  0  0  0  0  0  0  0  0  0
   -0.4389    0.3439    0.9577 H   0  0  0  0  0  0  0  0  0  0  0  0
    2.9638    1.6778   -2.3998 H   0  0  0  0  0  0  0  0  0  0  0  0
    1.9088   -0.2834    1.2852 H   0  0  0  0  0  0  0  0  0  0  0  0
   -8.6693   -2.6161   -1.0398 H   0  0  0  0  0  0  0  0  0  0  0  0
   -7.5357   -2.3042    3.0927 H   0  0  0  0  0  0  0  0  0  0  0  0
    7.0291   -2.9018   -1.1401 H   0  0  0  0  0  0  0  0  0  0  0  0
    7.9837   -0.2551   -1.6486 H   0  0  0  0  0  0  0  0  0  0  0  0
    5.3506   -4.2601   -2.3504 H   0  0  0  0  0  0  0  0  0  0  0  0
    3.0212   -3.3743   -2.5551 H   0  0  0  0  0  0  0  0  0  0  0  0
    9.5123    1.1215   -0.2317 H   0  0  0  0  0  0  0  0  0  0  0  0
    7.5714    1.3883    3.8026 H   0  0  0  0  0  0  0  0  0  0  0  0
    5.6771   -0.7342    3.9832 H   0  0  0  0  0  0  0  0  0  0  0  0
    5.7038    0.7163    4.9929 H   0  0  0  0  0  0  0  0  0  0  0  0
    4.8146    0.7378    3.4654 H   0  0  0  0  0  0  0  0  0  0  0  0
  1 31  1  0  0  0  0
  2 24  1  0  0  0  0
  2 30  1  0  0  0  0
  3 13  1  0  0  0  0
  3 17  1  0  0  0  0
  3 42  1  0  0  0  0
  4  5  1  0  0  0  0
  4 12  2  0  0  0  0
  5 13  2  0  0  0  0
  6 30  1  0  0  0  0
  6 36  2  0  0  0  0
  7 32  2  0  0  0  0
  7 37  1  0  0  0  0
  8 37  2  0  0  0  0
  8 38  1  0  0  0  0
  9 37  1  0  0  0  0
  9 39  1  0  0  0  0
  9 58  1  0  0  0  0
 10 11  1  0  0  0  0
 10 12  1  0  0  0  0
 10 15  2  0  0  0  0
 11 13  1  0  0  0  0
 11 16  2  0  0  0  0
 12 14  1  0  0  0  0
 14 20  2  0  0  0  0
 14 21  1  0  0  0  0
 15 18  1  0  0  0  0
 15 40  1  0  0  0  0
 16 19  1  0  0  0  0
 16 41  1  0  0  0  0
 17 22  2  0  0  0  0
 17 23  1  0  0  0  0
 18 19  2  0  0  0  0
 18 43  1  0  0  0  0
 19 44  1  0  0  0  0
 20 27  1  0  0  0  0
 20 45  1  0  0  0  0
 21 28  2  0  0  0  0
 21 46  1  0  0  0  0
 22 25  1  0  0  0  0
 22 47  1  0  0  0  0
 23 26  2  0  0  0  0
 23 48  1  0  0  0  0
 24 25  2  0  0  0  0
 24 26  1  0  0  0  0
 25 49  1  0  0  0  0
 26 50  1  0  0  0  0
 27 31  2  0  0  0  0
 27 51  1  0  0  0  0
 28 31  1  0  0  0  0
 28 52  1  0  0  0  0
 29 30  2  0  0  0  0
 29 32  1  0  0  0  0
 29 33  1  0  0  0  0
 32 34  1  0  0  0  0
 33 35  2  0  0  0  0
 33 53  1  0  0  0  0
 34 38  2  0  0  0  0
 34 54  1  0  0  0  0
 35 36  1  0  0  0  0
 35 55  1  0  0  0  0
 36 56  1  0  0  0  0
 38 57  1  0  0  0  0
 39 59  1  0  0  0  0
 39 60  1  0  0  0  0
 39 61  1  0  0  0  0
M  END
> <PUBCHEM_COMPOUND_CID>
46929857

> <PUBCHEM_CONFORMER_RMSD>
1.2

> <PUBCHEM_CONFORMER_DIVERSEORDER>
1
102
39
2
112
51
105
100
116
69
91
21
56
36
89
95
114
26
73
66
83
81
57
41
25
37
113
92
94
68
46
93
104
87
106
77
22
45
78
82
99
61
75
111
101
12
44
59
16
29
84
43
54
90
58
109
4
23
67
71
85
96
65
62
117
64
76
107
53
32
27
17
50
63
38
86
18
35
40
70
3
30
97
34
98
13
42
28
60
47
55
72
103
52
31
80
79
5
49
11
115
88
110
33
9
6
48
74
19
108
24
8
7
20
10
15
14

> <PUBCHEM_MMFF94_PARTIAL_CHARGES>
54
1 -0.19
12 0.31
13 0.41
15 -0.15
16 -0.15
17 0.1
18 -0.15
19 -0.15
2 -0.17
20 -0.15
21 -0.15
22 -0.15
23 -0.15
24 0.08
25 -0.15
26 -0.15
27 -0.15
28 -0.15
3 -0.6
30 0.39
31 0.19
32 0.31
33 -0.15
34 -0.15
35 -0.15
36 0.16
37 0.72
38 0.16
39 0.37
4 -0.31
40 0.15
41 0.15
42 0.4
43 0.15
44 0.15
45 0.15
46 0.15
47 0.15
48 0.15
49 0.15
5 -0.31
50 0.15
51 0.15
52 0.15
53 0.15
54 0.15
55 0.15
56 0.15
57 0.15
58 0.4
6 -0.62
7 -0.62
8 -0.62
9 -0.87

> <PUBCHEM_EFFECTIVE_ROTOR_COUNT>
7

> <PUBCHEM_PHARMACOPHORE_FEATURES>
14
1 2 acceptor
1 3 donor
1 4 acceptor
1 6 acceptor
1 7 acceptor
1 9 donor
3 3 5 13 cation
4 7 8 9 37 cation
6 10 11 15 16 18 19 rings
6 14 20 21 27 28 31 rings
6 17 22 23 24 25 26 rings
6 4 5 10 11 12 13 rings
6 6 29 30 33 35 36 rings
6 7 8 32 34 37 38 rings

> <PUBCHEM_HEAVY_ATOM_COUNT>
39

> <PUBCHEM_ATOM_DEF_STEREO_COUNT>
0

> <PUBCHEM_ATOM_UDEF_STEREO_COUNT>
0

> <PUBCHEM_BOND_DEF_STEREO_COUNT>
0

> <PUBCHEM_BOND_UDEF_STEREO_COUNT>
0

> <PUBCHEM_ISOTOPIC_ATOM_COUNT>
0

> <PUBCHEM_COMPONENT_COUNT>
1

> <PUBCHEM_CACTVS_TAUTO_COUNT>
6

> <PUBCHEM_CONFORMER_ID>
02CC17C100000001

> <PUBCHEM_MMFF94_ENERGY>
153.8763

> <PUBCHEM_FEATURE_SELFOVERLAP>
71.124

> <PUBCHEM_SHAPE_FINGERPRINT>
10100884 174 18042688480473832043
10391435 84 18408600332321867253
11135926 11 14923946717587411193
11386260 185 12107788523499329606
11409948 41 14635131431408725250
117089 54 18263662731166098903
12120059 9 18188757366961168926
12758862 11 18198902509828755105
13560911 23 18113621175216024617
13782708 43 18343310249638076519
13811026 1 18411983533552538543
15183329 4 17168150018236320918
18335252 114 12252181896506369814
19303781 99 18115305726209541055
19841028 212 17750520744813645441
21130935 74 18337110047613438898
21315759 40 16370725937047038795
21792938 703 17676496038290055002
21814621 53 18130224831085952984
22149856 69 18271540705786634672
23522609 53 17242483553857273060
24204213 148 17676763189640790210
335507 130 18342175600777233668
3383291 50 18260271880155607635
3418910 222 18412554210664847748
394071 54 16486970688062158404
397830 11 18201431485023947980
4073 2 18339928099624444253
4144715 1 18127415540550106444
437795 51 17847055585125946874
4461854 278 18201446916515129959
504579 68 10809337849787211247
5109719 28 17917421082293037568
58083652 198 16415185750662826385
6698420 124 17908993102428710825
9962374 69 18265331892726998943

> <PUBCHEM_SHAPE_MULTIPOLES>
754.59
30.77
3.83
2.33
0.28
0.13
2.43
-14.17
14.58
-8.08
-1.09
5.12
-0.44
6.31

> <PUBCHEM_SHAPE_SELFOVERLAP>
1693.709

> <PUBCHEM_SHAPE_VOLUME>
397.8

> <PUBCHEM_COORDINATE_TYPE>
2
5
10

$$$$
