44328576
  -OEChem-10062122043D

 59 61  0     1  0  0  0  0  0999 V2000
   -4.0466    0.9732   -1.4890 O   0  0  0  0  0  0  0  0  0  0  0  0
    3.1648    4.0321   -0.7447 O   0  0  0  0  0  0  0  0  0  0  0  0
    4.7557   -0.2595   -0.9199 O   0  0  0  0  0  0  0  0  0  0  0  0
    0.1035   -1.6076   -2.8232 O   0  0  0  0  0  0  0  0  0  0  0  0
   -1.6933   -2.9920   -2.9448 O   0  0  0  0  0  0  0  0  0  0  0  0
    1.1619    2.4853    0.5897 N   0  0  0  0  0  0  0  0  0  0  0  0
   -3.9940    1.5271    0.7660 N   0  0  0  0  0  0  0  0  0  0  0  0
    2.3614   -1.7062   -0.0691 N   0  0  0  0  0  0  0  0  0  0  0  0
    4.2777    2.0116   -1.0425 N   0  0  0  0  0  0  0  0  0  0  0  0
   -5.1324   -1.3071    0.3967 N   0  0  0  0  0  0  0  0  0  0  0  0
   -1.6679    3.3932    0.5329 C   0  0  0  0  0  0  0  0  0  0  0  0
   -0.5120    4.1670    1.1761 C   0  0  0  0  0  0  0  0  0  0  0  0
   -3.0052    3.7495    1.1903 C   0  0  0  0  0  0  0  0  0  0  0  0
    0.8296    3.8870    0.5042 C   0  0  0  0  0  0  0  0  0  0  0  0
   -4.1719    2.9533    0.6148 C   0  0  0  0  0  0  0  0  0  0  0  0
    2.2930    1.9495    0.0748 C   0  0  0  0  0  0  0  0  0  0  0  0
    2.7581    0.6908    0.0268 C   0  0  0  0  0  0  0  0  0  0  0  0
    2.1205   -0.5143    0.5600 C   0  0  0  0  0  0  0  0  0  0  0  0
   -3.7837   -0.8014    0.1351 C   0  0  1  0  0  0  0  0  0  0  0  0
   -3.1173   -1.6687   -0.9433 C   0  0  0  0  0  0  0  0  0  0  0  0
    1.6845   -2.7234    0.5654 C   0  0  0  0  0  0  0  0  0  0  0  0
    0.9914   -2.1514    1.6344 C   0  0  0  0  0  0  0  0  0  0  0  0
   -3.9460    0.6496   -0.3072 C   0  0  0  0  0  0  0  0  0  0  0  0
    1.2758   -0.7573    1.6184 C   0  0  0  0  0  0  0  0  0  0  0  0
    3.2721    2.8248   -0.6107 C   0  0  0  0  0  0  0  0  0  0  0  0
    4.0510    0.7110   -0.7002 C   0  0  0  0  0  0  0  0  0  0  0  0
   -1.7351   -1.1681   -1.3630 C   0  0  0  0  0  0  0  0  0  0  0  0
    1.6335   -4.0920    0.2779 C   0  0  0  0  0  0  0  0  0  0  0  0
    0.2084   -2.9843    2.4582 C   0  0  0  0  0  0  0  0  0  0  0  0
    0.8501   -4.8983    1.1084 C   0  0  0  0  0  0  0  0  0  0  0  0
    0.1477   -4.3552    2.1824 C   0  0  0  0  0  0  0  0  0  0  0  0
   -1.1352   -2.0182   -2.4551 C   0  0  0  0  0  0  0  0  0  0  0  0
   -1.4916    2.3166    0.6227 H   0  0  0  0  0  0  0  0  0  0  0  0
   -1.7165    3.6242   -0.5382 H   0  0  0  0  0  0  0  0  0  0  0  0
   -0.4505    3.9056    2.2401 H   0  0  0  0  0  0  0  0  0  0  0  0
   -0.7163    5.2432    1.1216 H   0  0  0  0  0  0  0  0  0  0  0  0
   -3.2059    4.8202    1.0666 H   0  0  0  0  0  0  0  0  0  0  0  0
   -2.9372    3.5572    2.2685 H   0  0  0  0  0  0  0  0  0  0  0  0
    1.5848    4.4932    1.0179 H   0  0  0  0  0  0  0  0  0  0  0  0
    0.7587    4.2062   -0.5423 H   0  0  0  0  0  0  0  0  0  0  0  0
   -4.3154    3.2047   -0.4414 H   0  0  0  0  0  0  0  0  0  0  0  0
   -5.0926    3.2160    1.1464 H   0  0  0  0  0  0  0  0  0  0  0  0
    0.5367    1.8572    1.0811 H   0  0  0  0  0  0  0  0  0  0  0  0
   -3.1866   -0.8451    1.0537 H   0  0  0  0  0  0  0  0  0  0  0  0
   -3.9483    1.1573    1.7110 H   0  0  0  0  0  0  0  0  0  0  0  0
   -3.0310   -2.7011   -0.5780 H   0  0  0  0  0  0  0  0  0  0  0  0
   -3.7607   -1.7131   -1.8334 H   0  0  0  0  0  0  0  0  0  0  0  0
    2.9457   -1.8326   -0.8845 H   0  0  0  0  0  0  0  0  0  0  0  0
    0.9021   -0.0213    2.3175 H   0  0  0  0  0  0  0  0  0  0  0  0
    5.0944    2.3340   -1.5490 H   0  0  0  0  0  0  0  0  0  0  0  0
   -1.7821   -0.1431   -1.7421 H   0  0  0  0  0  0  0  0  0  0  0  0
   -1.0626   -1.1925   -0.5007 H   0  0  0  0  0  0  0  0  0  0  0  0
    2.1795   -4.5154   -0.5584 H   0  0  0  0  0  0  0  0  0  0  0  0
   -0.3448   -2.5739    3.2981 H   0  0  0  0  0  0  0  0  0  0  0  0
   -5.5416   -0.7977    1.1793 H   0  0  0  0  0  0  0  0  0  0  0  0
   -5.0806   -2.2818    0.6906 H   0  0  0  0  0  0  0  0  0  0  0  0
    0.7883   -5.9656    0.9121 H   0  0  0  0  0  0  0  0  0  0  0  0
   -0.4552   -5.0022    2.8140 H   0  0  0  0  0  0  0  0  0  0  0  0
    0.4862   -2.1788   -3.5227 H   0  0  0  0  0  0  0  0  0  0  0  0
  1 23  2  0  0  0  0
  2 25  2  0  0  0  0
  3 26  2  0  0  0  0
  4 32  1  0  0  0  0
  4 59  1  0  0  0  0
  5 32  2  0  0  0  0
  6 14  1  0  0  0  0
  6 16  1  0  0  0  0
  6 43  1  0  0  0  0
  7 15  1  0  0  0  0
  7 23  1  0  0  0  0
  7 45  1  0  0  0  0
  8 18  1  0  0  0  0
  8 21  1  0  0  0  0
  8 48  1  0  0  0  0
  9 25  1  0  0  0  0
  9 26  1  0  0  0  0
  9 50  1  0  0  0  0
 10 19  1  0  0  0  0
 10 55  1  0  0  0  0
 10 56  1  0  0  0  0
 11 12  1  0  0  0  0
 11 13  1  0  0  0  0
 11 33  1  0  0  0  0
 11 34  1  0  0  0  0
 12 14  1  0  0  0  0
 12 35  1  0  0  0  0
 12 36  1  0  0  0  0
 13 15  1  0  0  0  0
 13 37  1  0  0  0  0
 13 38  1  0  0  0  0
 14 39  1  0  0  0  0
 14 40  1  0  0  0  0
 15 41  1  0  0  0  0
 15 42  1  0  0  0  0
 16 17  2  0  0  0  0
 16 25  1  0  0  0  0
 17 18  1  0  0  0  0
 17 26  1  0  0  0  0
 18 24  2  0  0  0  0
 19 20  1  0  0  0  0
 19 23  1  0  0  0  0
 19 44  1  0  0  0  0
 20 27  1  0  0  0  0
 20 46  1  0  0  0  0
 20 47  1  0  0  0  0
 21 22  1  0  0  0  0
 21 28  2  0  0  0  0
 22 24  1  0  0  0  0
 22 29  2  0  0  0  0
 24 49  1  0  0  0  0
 27 32  1  0  0  0  0
 27 51  1  0  0  0  0
 27 52  1  0  0  0  0
 28 30  1  0  0  0  0
 28 53  1  0  0  0  0
 29 31  1  0  0  0  0
 29 54  1  0  0  0  0
 30 31  2  0  0  0  0
 30 57  1  0  0  0  0
 31 58  1  0  0  0  0
M  END
> <PUBCHEM_COMPOUND_CID>
44328576

> <PUBCHEM_CONFORMER_RMSD>
1.2

> <PUBCHEM_CONFORMER_DIVERSEORDER>
1
184
20
114
49
4
192
153
129
128
82
182
40
187
185
37
54
174
105
95
137
176
56
47
197
108
65
172
13
203
88
86
57
11
151
207
149
125
117
43
73
69
127
15
41
145
24
148
152
193
30
26
25
64
107
143
98
131
206
53
48
135
58
159
83
9
77
28
136
10
14
111
66
55
44
201
134
189
177
12
67
186
61
42
2
109
103
181
97
146
154
94
200
22
196
90
51
167
171
130
124
78
123
84
8
132
38
101
6
198
157
60
59
52
110
106
45
46
175
71
126
102
5
155
50
33
91
164
85
80
62
178
194
119
76
142
23
170
18
191
160
81
3
144
89
27
158
165
75
179
100
169
204
166
68
104
87
188
180
96
133
139
202
21
32
35
168
115
34
141
138
99
118
39
31
92
112
19
16
93
161
150
173
156
205
79
113
63
190
140
116
183
195
70
7
162
29
122
199
72
120
121
17
163
74
36
147

> <PUBCHEM_MMFF94_PARTIAL_CHARGES>
39
1 -0.57
10 -0.99
14 0.37
15 0.3
16 0.11
17 0.06
18 -0.2
19 0.33
2 -0.57
21 -0.15
23 0.57
24 -0.15
25 0.62
26 0.62
27 0.06
28 -0.15
29 -0.15
3 -0.57
30 -0.15
31 -0.15
32 0.66
4 -0.65
43 0.4
45 0.37
48 0.27
49 0.15
5 -0.57
50 0.37
53 0.15
54 0.15
55 0.36
56 0.36
57 0.15
58 0.15
59 0.5
6 -0.87
7 -0.73
8 0.03
9 -0.49

> <PUBCHEM_EFFECTIVE_ROTOR_COUNT>
13.2

> <PUBCHEM_PHARMACOPHORE_FEATURES>
17
1 1 acceptor
1 10 cation
1 10 donor
1 2 acceptor
1 3 acceptor
1 4 acceptor
1 5 acceptor
1 6 cation
1 6 donor
1 7 donor
1 8 cation
1 8 donor
1 9 donor
3 4 5 32 anion
5 8 18 21 22 24 rings
5 9 16 17 25 26 rings
6 21 22 28 29 30 31 rings

> <PUBCHEM_HEAVY_ATOM_COUNT>
32

> <PUBCHEM_ATOM_DEF_STEREO_COUNT>
0

> <PUBCHEM_ATOM_UDEF_STEREO_COUNT>
1

> <PUBCHEM_BOND_DEF_STEREO_COUNT>
0

> <PUBCHEM_BOND_UDEF_STEREO_COUNT>
0

> <PUBCHEM_ISOTOPIC_ATOM_COUNT>
0

> <PUBCHEM_COMPONENT_COUNT>
1

> <PUBCHEM_CACTVS_TAUTO_COUNT>
16

> <PUBCHEM_CONFORMER_ID>
02A4668000000001

> <PUBCHEM_MMFF94_ENERGY>
43.995

> <PUBCHEM_FEATURE_SELFOVERLAP>
86.424

> <PUBCHEM_SHAPE_FINGERPRINT>
12293681 4 18050287269651756008
13165054 49 17984690372243156456
13583140 156 18261384495860095783
13642711 20 17905086652607928282
14117953 113 16537074015084244933
14279260 333 18409451380487078486
15274700 242 18191575356262699110
17921350 177 17833551197891530389
19311894 1 18271802471058607014
19319366 153 18336261331715325733
20764821 26 16751004428947577889
3052486 1 16899343335106759159
437795 51 16895932130900971303
469060 322 15288709901506846503

> <PUBCHEM_SHAPE_MULTIPOLES>
604.29
8.01
7.46
2.2
8.01
2.6
1.01
0.83
-0.65
-3.3
-0.72
-0.27
-2.46
-3.82

> <PUBCHEM_SHAPE_SELFOVERLAP>
1280.927

> <PUBCHEM_SHAPE_VOLUME>
337.6

> <PUBCHEM_COORDINATE_TYPE>
2
5
10

$$$$
