24905304
  -OEChem-10052115143D

 41 44  0     1  0  0  0  0  0999 V2000
   -6.1951    1.6423    0.1112 Cl  0  0  0  0  0  0  0  0  0  0  0  0
   -4.0878    1.9704   -2.0076 O   0  0  0  0  0  0  0  0  0  0  0  0
    4.7413    1.9538    0.7692 N   0  0  0  0  0  0  0  0  0  0  0  0
    1.5281   -0.0738    0.8988 N   0  0  0  0  0  0  0  0  0  0  0  0
    0.3986    0.6553    0.9643 N   0  0  0  0  0  0  0  0  0  0  0  0
    2.2787   -2.2645    0.1919 N   0  0  0  0  0  0  0  0  0  0  0  0
    0.4412   -3.6082   -0.6848 N   0  0  0  0  0  0  0  0  0  0  0  0
   -1.8024   -2.8027   -0.8055 N   0  0  0  0  0  0  0  0  0  0  0  0
    3.4053    1.5025    0.3762 C   0  0  1  0  0  0  0  0  0  0  0  0
    3.6594    0.8832   -0.9900 C   0  0  0  0  0  0  0  0  0  0  0  0
    4.7691    1.7392   -1.5885 C   0  0  0  0  0  0  0  0  0  0  0  0
    2.8255    0.5216    1.3803 C   0  0  0  0  0  0  0  0  0  0  0  0
    5.3074    2.5678   -0.4299 C   0  0  0  0  0  0  0  0  0  0  0  0
    1.3429   -1.3203    0.3786 C   0  0  0  0  0  0  0  0  0  0  0  0
   -0.0056   -1.4139    0.0822 C   0  0  0  0  0  0  0  0  0  0  0  0
   -0.5317   -0.1663    0.4657 C   0  0  0  0  0  0  0  0  0  0  0  0
   -1.9009    0.2742    0.3731 C   0  0  0  0  0  0  0  0  0  0  0  0
   -0.4502   -2.6111   -0.4690 C   0  0  0  0  0  0  0  0  0  0  0  0
   -2.3503    0.9180   -0.7799 C   0  0  0  0  0  0  0  0  0  0  0  0
   -2.7767    0.0564    1.4368 C   0  0  0  0  0  0  0  0  0  0  0  0
    1.7318   -3.3763   -0.3457 C   0  0  0  0  0  0  0  0  0  0  0  0
   -3.6755    1.3439   -0.8692 C   0  0  0  0  0  0  0  0  0  0  0  0
   -4.1019    0.4825    1.3475 C   0  0  0  0  0  0  0  0  0  0  0  0
   -4.5512    1.1261    0.1944 C   0  0  0  0  0  0  0  0  0  0  0  0
    2.7399    2.3701    0.2741 H   0  0  0  0  0  0  0  0  0  0  0  0
    2.7661    0.8856   -1.6229 H   0  0  0  0  0  0  0  0  0  0  0  0
    4.0122   -0.1522   -0.9065 H   0  0  0  0  0  0  0  0  0  0  0  0
    5.5474    1.1030   -2.0239 H   0  0  0  0  0  0  0  0  0  0  0  0
    4.3816    2.3890   -2.3806 H   0  0  0  0  0  0  0  0  0  0  0  0
    2.5925    1.0019    2.3377 H   0  0  0  0  0  0  0  0  0  0  0  0
    3.4922   -0.3263    1.5754 H   0  0  0  0  0  0  0  0  0  0  0  0
    6.4013    2.5743   -0.4015 H   0  0  0  0  0  0  0  0  0  0  0  0
    4.9687    3.6070   -0.5105 H   0  0  0  0  0  0  0  0  0  0  0  0
    5.3075    1.1419    1.0195 H   0  0  0  0  0  0  0  0  0  0  0  0
   -1.6679    1.0878   -1.6103 H   0  0  0  0  0  0  0  0  0  0  0  0
   -2.4420   -0.4445    2.3421 H   0  0  0  0  0  0  0  0  0  0  0  0
    2.4186   -4.1950   -0.5318 H   0  0  0  0  0  0  0  0  0  0  0  0
   -2.4893   -2.0785   -0.6560 H   0  0  0  0  0  0  0  0  0  0  0  0
   -2.0834   -3.6886   -1.2039 H   0  0  0  0  0  0  0  0  0  0  0  0
   -4.7722    0.3052    2.1847 H   0  0  0  0  0  0  0  0  0  0  0  0
   -3.3417    2.0289   -2.6287 H   0  0  0  0  0  0  0  0  0  0  0  0
  1 24  1  0  0  0  0
  2 22  1  0  0  0  0
  2 41  1  0  0  0  0
  3  9  1  0  0  0  0
  3 13  1  0  0  0  0
  3 34  1  0  0  0  0
  4  5  1  0  0  0  0
  4 12  1  0  0  0  0
  4 14  1  0  0  0  0
  5 16  2  0  0  0  0
  6 14  2  0  0  0  0
  6 21  1  0  0  0  0
  7 18  1  0  0  0  0
  7 21  2  0  0  0  0
  8 18  1  0  0  0  0
  8 38  1  0  0  0  0
  8 39  1  0  0  0  0
  9 10  1  0  0  0  0
  9 12  1  0  0  0  0
  9 25  1  0  0  0  0
 10 11  1  0  0  0  0
 10 26  1  0  0  0  0
 10 27  1  0  0  0  0
 11 13  1  0  0  0  0
 11 28  1  0  0  0  0
 11 29  1  0  0  0  0
 12 30  1  0  0  0  0
 12 31  1  0  0  0  0
 13 32  1  0  0  0  0
 13 33  1  0  0  0  0
 14 15  1  0  0  0  0
 15 16  1  0  0  0  0
 15 18  2  0  0  0  0
 16 17  1  0  0  0  0
 17 19  2  0  0  0  0
 17 20  1  0  0  0  0
 19 22  1  0  0  0  0
 19 35  1  0  0  0  0
 20 23  2  0  0  0  0
 20 36  1  0  0  0  0
 21 37  1  0  0  0  0
 22 24  2  0  0  0  0
 23 24  1  0  0  0  0
 23 40  1  0  0  0  0
M  END
> <PUBCHEM_COMPOUND_CID>
24905304

> <PUBCHEM_CONFORMER_RMSD>
0.8

> <PUBCHEM_CONFORMER_DIVERSEORDER>
1
15
19
25
10
21
6
23
7
29
28
20
9
24
11
17
14
16
22
5
26
27
12
2
8
18
13
4
3

> <PUBCHEM_MMFF94_PARTIAL_CHARGES>
29
1 -0.18
12 0.26
13 0.27
14 0.11
16 0.23
17 0.05
18 0.41
19 -0.15
2 -0.53
20 -0.15
21 0.47
22 0.08
23 -0.15
24 0.18
3 -0.9
34 0.36
35 0.15
36 0.15
37 0.15
38 0.4
39 0.4
4 0.31
40 0.15
41 0.45
5 -0.71
6 -0.57
7 -0.62
8 -0.9
9 0.27

> <PUBCHEM_EFFECTIVE_ROTOR_COUNT>
4

> <PUBCHEM_PHARMACOPHORE_FEATURES>
12
1 2 donor
1 3 cation
1 3 donor
1 5 acceptor
1 8 cation
1 8 donor
3 4 6 14 cation
3 6 7 21 cation
5 3 9 10 11 13 rings
5 4 5 14 15 16 rings
6 17 19 20 22 23 24 rings
6 6 7 14 15 18 21 rings

> <PUBCHEM_HEAVY_ATOM_COUNT>
24

> <PUBCHEM_ATOM_DEF_STEREO_COUNT>
0

> <PUBCHEM_ATOM_UDEF_STEREO_COUNT>
1

> <PUBCHEM_BOND_DEF_STEREO_COUNT>
0

> <PUBCHEM_BOND_UDEF_STEREO_COUNT>
0

> <PUBCHEM_ISOTOPIC_ATOM_COUNT>
0

> <PUBCHEM_COMPONENT_COUNT>
1

> <PUBCHEM_CACTVS_TAUTO_COUNT>
15

> <PUBCHEM_CONFORMER_ID>
017C065800000001

> <PUBCHEM_MMFF94_ENERGY>
50.413

> <PUBCHEM_FEATURE_SELFOVERLAP>
61.177

> <PUBCHEM_SHAPE_FINGERPRINT>
10165383 225 18340777017085489216
10498660 4 18341049709154759832
105312 117 18339363066954931556
11796584 16 13110960894618932557
12403259 118 17676762175595730800
12422481 6 17895458264334087924
12633257 1 14345797197059562148
12730499 353 18411709763920924827
12788726 201 17689721183065318262
12895836 83 18264216988000100948
12895837 130 17609795441334388668
12969540 114 18413387661272205412
13140716 1 18342167852324591306
13540713 5 18267564936213319530
13583140 156 17096908197064330314
13911987 19 18340492252359300857
1454969 45 18264775548744547251
14747281 78 17906189356024386789
15342168 16 18411135818861976309
15961568 22 17748834003260877549
16752209 62 18125993017485159730
17134986 127 18410575102454858374
17980427 23 17530970241235621749
1813 80 17198270967106571886
18785283 64 18264203617376388386
19784866 34 18343302578288454440
204376 136 18412543223556911403
20645477 70 18267861675687825475
20871999 31 18056202612191691148
21641784 216 18192419999550037119
2255824 54 18056758728398990035
23559900 14 17605839105626919051
25147074 1 18340750616190799290
283562 15 17981034533549532186
3057174 1 18272368659475450462
3729539 64 18125186873909799958
38570 142 17344097145968062641
45377200 153 15697421357365963365
458136 41 18342464707431040843
46194498 28 18192991518163348821
469060 322 18046635765824403491
53917941 68 18198616821298274376
57527293 21 18114188523379020323
57527585 21 18189877765595564173
59755656 520 17560261213703887907
6034566 193 18335986483757193149
6327066 14 18336263547903068252
633830 44 17704078412158102696
6669772 16 18272380763173208510
7808743 9 18263927820699916324
9862522 239 18114173185470563836

> <PUBCHEM_SHAPE_MULTIPOLES>
460.02
11.17
3.62
1.37
2.71
3.7
-0.14
-12.81
-1.38
-2.52
-1.3
0.22
-0.53
0.14

> <PUBCHEM_SHAPE_SELFOVERLAP>
1003.423

> <PUBCHEM_SHAPE_VOLUME>
252.2

> <PUBCHEM_COORDINATE_TYPE>
2
5
10

$$$$
