24905299
  -OEChem-10052115163D

 44 47  0     1  0  0  0  0  0999 V2000
    6.2355    2.1017   -0.0561 Cl  0  0  0  0  0  0  0  0  0  0  0  0
    4.0765    2.2431    2.0291 O   0  0  0  0  0  0  0  0  0  0  0  0
   -4.5404    1.1506    1.7007 N   0  0  0  0  0  0  0  0  0  0  0  0
   -1.2756   -0.3513   -0.9368 N   0  0  0  0  0  0  0  0  0  0  0  0
   -0.2196    0.4815   -0.9931 N   0  0  0  0  0  0  0  0  0  0  0  0
   -1.8248   -2.5980   -0.2203 N   0  0  0  0  0  0  0  0  0  0  0  0
    0.1188   -3.7534    0.6950 N   0  0  0  0  0  0  0  0  0  0  0  0
    2.2734   -2.7369    0.8403 N   0  0  0  0  0  0  0  0  0  0  0  0
   -3.2939    1.0544   -0.4495 C   0  0  1  0  0  0  0  0  0  0  0  0
   -4.4060    1.8570   -1.1369 C   0  0  0  0  0  0  0  0  0  0  0  0
   -3.8573    0.2722    0.7466 C   0  0  0  0  0  0  0  0  0  0  0  0
   -2.6141    0.1130   -1.4415 C   0  0  0  0  0  0  0  0  0  0  0  0
   -5.1631    2.7089   -0.1215 C   0  0  0  0  0  0  0  0  0  0  0  0
   -5.6445    1.8655    1.0573 C   0  0  0  0  0  0  0  0  0  0  0  0
   -0.9804   -1.5703   -0.4024 C   0  0  0  0  0  0  0  0  0  0  0  0
    0.3662   -1.5327   -0.0860 C   0  0  0  0  0  0  0  0  0  0  0  0
    0.7770   -0.2437   -0.4735 C   0  0  0  0  0  0  0  0  0  0  0  0
    2.0964    0.3260   -0.3656 C   0  0  0  0  0  0  0  0  0  0  0  0
    0.9143   -2.6777    0.4827 C   0  0  0  0  0  0  0  0  0  0  0  0
   -1.1828   -3.6482    0.3354 C   0  0  0  0  0  0  0  0  0  0  0  0
    2.4651    1.0192    0.7874 C   0  0  0  0  0  0  0  0  0  0  0  0
    3.0047    0.1841   -1.4146 C   0  0  0  0  0  0  0  0  0  0  0  0
    3.7423    1.5705    0.8914 C   0  0  0  0  0  0  0  0  0  0  0  0
    4.2818    0.7356   -1.3106 C   0  0  0  0  0  0  0  0  0  0  0  0
    4.6506    1.4287   -0.1576 C   0  0  0  0  0  0  0  0  0  0  0  0
   -2.5531    1.7730   -0.0705 H   0  0  0  0  0  0  0  0  0  0  0  0
   -5.1083    1.1736   -1.6312 H   0  0  0  0  0  0  0  0  0  0  0  0
   -3.9839    2.5019   -1.9165 H   0  0  0  0  0  0  0  0  0  0  0  0
   -4.5477   -0.5117    0.4108 H   0  0  0  0  0  0  0  0  0  0  0  0
   -3.0483   -0.2342    1.2837 H   0  0  0  0  0  0  0  0  0  0  0  0
   -2.3923    0.6132   -2.3918 H   0  0  0  0  0  0  0  0  0  0  0  0
   -3.2055   -0.7840   -1.6530 H   0  0  0  0  0  0  0  0  0  0  0  0
   -4.5090    3.5116    0.2419 H   0  0  0  0  0  0  0  0  0  0  0  0
   -6.0193    3.1896   -0.6077 H   0  0  0  0  0  0  0  0  0  0  0  0
   -6.1238    2.5152    1.7978 H   0  0  0  0  0  0  0  0  0  0  0  0
   -6.4078    1.1504    0.7275 H   0  0  0  0  0  0  0  0  0  0  0  0
   -3.8707    1.8318    2.0591 H   0  0  0  0  0  0  0  0  0  0  0  0
   -1.7913   -4.5271    0.5194 H   0  0  0  0  0  0  0  0  0  0  0  0
    1.7573    1.1301    1.6064 H   0  0  0  0  0  0  0  0  0  0  0  0
    2.7330   -0.3537   -2.3198 H   0  0  0  0  0  0  0  0  0  0  0  0
    2.8904   -1.9516    0.6939 H   0  0  0  0  0  0  0  0  0  0  0  0
    2.6313   -3.5888    1.2509 H   0  0  0  0  0  0  0  0  0  0  0  0
    4.9783    0.6166   -2.1368 H   0  0  0  0  0  0  0  0  0  0  0  0
    3.3192    2.2354    2.6393 H   0  0  0  0  0  0  0  0  0  0  0  0
  1 25  1  0  0  0  0
  2 23  1  0  0  0  0
  2 44  1  0  0  0  0
  3 11  1  0  0  0  0
  3 14  1  0  0  0  0
  3 37  1  0  0  0  0
  4  5  1  0  0  0  0
  4 12  1  0  0  0  0
  4 15  1  0  0  0  0
  5 17  2  0  0  0  0
  6 15  2  0  0  0  0
  6 20  1  0  0  0  0
  7 19  1  0  0  0  0
  7 20  2  0  0  0  0
  8 19  1  0  0  0  0
  8 41  1  0  0  0  0
  8 42  1  0  0  0  0
  9 10  1  0  0  0  0
  9 11  1  0  0  0  0
  9 12  1  0  0  0  0
  9 26  1  0  0  0  0
 10 13  1  0  0  0  0
 10 27  1  0  0  0  0
 10 28  1  0  0  0  0
 11 29  1  0  0  0  0
 11 30  1  0  0  0  0
 12 31  1  0  0  0  0
 12 32  1  0  0  0  0
 13 14  1  0  0  0  0
 13 33  1  0  0  0  0
 13 34  1  0  0  0  0
 14 35  1  0  0  0  0
 14 36  1  0  0  0  0
 15 16  1  0  0  0  0
 16 17  1  0  0  0  0
 16 19  2  0  0  0  0
 17 18  1  0  0  0  0
 18 21  2  0  0  0  0
 18 22  1  0  0  0  0
 20 38  1  0  0  0  0
 21 23  1  0  0  0  0
 21 39  1  0  0  0  0
 22 24  2  0  0  0  0
 22 40  1  0  0  0  0
 23 25  2  0  0  0  0
 24 25  1  0  0  0  0
 24 43  1  0  0  0  0
M  END
> <PUBCHEM_COMPOUND_CID>
24905299

> <PUBCHEM_CONFORMER_RMSD>
0.8

> <PUBCHEM_CONFORMER_DIVERSEORDER>
1
37
36
47
35
42
15
44
41
46
30
20
14
45
38
21
32
6
40
31
8
27
33
26
11
43
34
7
29
23
39
2
4
28
25
19
3
10
18
13
22
17
9
24
5
12
16

> <PUBCHEM_MMFF94_PARTIAL_CHARGES>
29
1 -0.18
11 0.27
12 0.26
14 0.27
15 0.11
17 0.23
18 0.05
19 0.41
2 -0.53
20 0.47
21 -0.15
22 -0.15
23 0.08
24 -0.15
25 0.18
3 -0.9
37 0.36
38 0.15
39 0.15
4 0.31
40 0.15
41 0.4
42 0.4
43 0.15
44 0.45
5 -0.71
6 -0.57
7 -0.62
8 -0.9

> <PUBCHEM_EFFECTIVE_ROTOR_COUNT>
4.2

> <PUBCHEM_PHARMACOPHORE_FEATURES>
12
1 2 donor
1 3 cation
1 3 donor
1 5 acceptor
1 8 cation
1 8 donor
3 4 6 15 cation
3 6 7 20 cation
5 4 5 15 16 17 rings
6 18 21 22 23 24 25 rings
6 3 9 10 11 13 14 rings
6 6 7 15 16 19 20 rings

> <PUBCHEM_HEAVY_ATOM_COUNT>
25

> <PUBCHEM_ATOM_DEF_STEREO_COUNT>
0

> <PUBCHEM_ATOM_UDEF_STEREO_COUNT>
1

> <PUBCHEM_BOND_DEF_STEREO_COUNT>
0

> <PUBCHEM_BOND_UDEF_STEREO_COUNT>
0

> <PUBCHEM_ISOTOPIC_ATOM_COUNT>
0

> <PUBCHEM_COMPONENT_COUNT>
1

> <PUBCHEM_CACTVS_TAUTO_COUNT>
15

> <PUBCHEM_CONFORMER_ID>
017C065300000001

> <PUBCHEM_MMFF94_ENERGY>
49.6561

> <PUBCHEM_FEATURE_SELFOVERLAP>
61.177

> <PUBCHEM_SHAPE_FINGERPRINT>
10165383 225 18336275573579063685
10493431 412 18335706061089382077
1100329 8 18265045839088855730
12107183 9 18261376838170270584
12390115 104 18339085981096946797
12403259 118 17385728006307186581
12422481 6 17749935675377827042
12623949 98 12901546802292229680
12788726 201 17684098254462010870
13140716 1 18261667074036979891
13540713 5 18265874948002144887
13544653 18 11818995184097103853
13878862 14 17829872254135841549
13965767 371 18114444692049797580
14178342 30 18190456245807361198
15927050 60 18410012139432932358
17913733 40 18336838493831327617
1813 80 8358254865013832737
18222031 100 9439400212047279204
18785283 64 18115028472309858822
19784866 34 18411980235070291965
20739085 24 17970638393447198381
21033648 29 18411138043307473849
21401589 2 18201154459585721385
21756936 100 18342173405447564812
21796203 349 17544215787291411971
22122407 14 17840318727138629073
22224240 67 18409175420095317001
23559900 14 17461734900393855653
23845131 108 18334859399088450611
283562 15 18048588510954326175
2838139 119 17346598564601246081
3178227 256 18118411635376649514
350125 39 18118684318739453820
38570 142 18130239163576546173
4280585 95 9943808859070008188
458136 41 18262803960480319095
469060 322 18187930651014141263
495365 180 18190456057123790087
5104073 3 18261110759681093067
5252454 2 18409726253181118429
57527295 17 17917424372005604718
57527585 21 17552627467380777588
59755656 520 18411983572006537198
633830 44 18273209789943834229
6442390 28 18335994120277636391
7226269 152 18202281416334444384
7808743 9 18262805197716009868
9658208 31 18338252521382235358

> <PUBCHEM_SHAPE_MULTIPOLES>
480.6
11.96
3.94
1.4
0.48
4.12
0.16
-14.99
1.86
0.93
1.19
-0.02
-0.58
0.18

> <PUBCHEM_SHAPE_SELFOVERLAP>
1040.741

> <PUBCHEM_SHAPE_VOLUME>
263.6

> <PUBCHEM_COORDINATE_TYPE>
2
5
10

$$$$
