49830732
  -OEChem-10052120443D

 44 47  0     0  0  0  0  0  0999 V2000
   -4.6148   -0.9637   -1.0728 S   0  0  0  0  0  0  0  0  0  0  0  0
   -6.0557   -0.8416   -0.8990 O   0  0  0  0  0  0  0  0  0  0  0  0
   -4.0309   -0.8109   -2.3978 O   0  0  0  0  0  0  0  0  0  0  0  0
    4.3624    2.5370   -1.8265 O   0  0  0  0  0  0  0  0  0  0  0  0
    1.6079    1.9877   -0.1494 N   0  0  0  0  0  0  0  0  0  0  0  0
    0.6733   -0.1929    0.2533 N   0  0  0  0  0  0  0  0  0  0  0  0
    1.2213    3.2910   -0.2109 N   0  0  0  0  0  0  0  0  0  0  0  0
    4.7362    2.7211    0.4447 N   0  0  0  0  0  0  0  0  0  0  0  0
   -0.5734    1.9728    0.2634 C   0  0  0  0  0  0  0  0  0  0  0  0
    0.5271    1.1558    0.1405 C   0  0  0  0  0  0  0  0  0  0  0  0
   -1.8954    1.5114    0.5625 C   0  0  0  0  0  0  0  0  0  0  0  0
    2.8844    1.4586   -0.3418 C   0  0  0  0  0  0  0  0  0  0  0  0
   -3.8185    0.1621   -0.0018 C   0  0  0  0  0  0  0  0  0  0  0  0
   -2.5310    0.6125   -0.2941 C   0  0  0  0  0  0  0  0  0  0  0  0
    1.8716   -0.6757    0.0858 C   0  0  0  0  0  0  0  0  0  0  0  0
   -0.0868    3.2663    0.0384 C   0  0  0  0  0  0  0  0  0  0  0  0
    3.0879    0.1375   -0.2418 C   0  0  0  0  0  0  0  0  0  0  0  0
   -2.5471    1.9601    1.7113 C   0  0  0  0  0  0  0  0  0  0  0  0
   -4.4702    0.6108    1.1472 C   0  0  0  0  0  0  0  0  0  0  0  0
    2.0739   -2.1439    0.2055 C   0  0  0  0  0  0  0  0  0  0  0  0
   -3.8346    1.5100    2.0035 C   0  0  0  0  0  0  0  0  0  0  0  0
    4.0535    2.2832   -0.6650 C   0  0  0  0  0  0  0  0  0  0  0  0
   -4.1528   -2.5658   -0.4533 C   0  0  0  0  0  0  0  0  0  0  0  0
    3.3017   -2.6455    0.6376 C   0  0  0  0  0  0  0  0  0  0  0  0
    1.0364   -3.0196   -0.1150 C   0  0  0  0  0  0  0  0  0  0  0  0
    3.4921   -4.0229    0.7494 C   0  0  0  0  0  0  0  0  0  0  0  0
    1.2269   -4.3970   -0.0032 C   0  0  0  0  0  0  0  0  0  0  0  0
    2.4546   -4.8986    0.4292 C   0  0  0  0  0  0  0  0  0  0  0  0
   -2.0209    0.2622   -1.1887 H   0  0  0  0  0  0  0  0  0  0  0  0
   -0.6282    4.2020    0.0439 H   0  0  0  0  0  0  0  0  0  0  0  0
    4.0535   -0.3155   -0.4215 H   0  0  0  0  0  0  0  0  0  0  0  0
   -2.0666    2.6585    2.3924 H   0  0  0  0  0  0  0  0  0  0  0  0
   -5.4702    0.2680    1.3976 H   0  0  0  0  0  0  0  0  0  0  0  0
   -4.3412    1.8578    2.8990 H   0  0  0  0  0  0  0  0  0  0  0  0
   -4.6183   -3.3221   -1.0889 H   0  0  0  0  0  0  0  0  0  0  0  0
   -3.0661   -2.6624   -0.4949 H   0  0  0  0  0  0  0  0  0  0  0  0
   -4.5129   -2.6678    0.5721 H   0  0  0  0  0  0  0  0  0  0  0  0
    4.1234   -2.0005    0.9332 H   0  0  0  0  0  0  0  0  0  0  0  0
    0.0735   -2.6526   -0.4605 H   0  0  0  0  0  0  0  0  0  0  0  0
    4.4450   -4.4138    1.0941 H   0  0  0  0  0  0  0  0  0  0  0  0
    0.4196   -5.0790   -0.2537 H   0  0  0  0  0  0  0  0  0  0  0  0
    2.6021   -5.9709    0.5180 H   0  0  0  0  0  0  0  0  0  0  0  0
    5.5642    3.3002    0.3516 H   0  0  0  0  0  0  0  0  0  0  0  0
    4.4482    2.4901    1.3905 H   0  0  0  0  0  0  0  0  0  0  0  0
  1  2  2  0  0  0  0
  1  3  2  0  0  0  0
  1 13  1  0  0  0  0
  1 23  1  0  0  0  0
  4 22  2  0  0  0  0
  5  7  1  0  0  0  0
  5 10  1  0  0  0  0
  5 12  1  0  0  0  0
  6 10  1  0  0  0  0
  6 15  2  0  0  0  0
  7 16  2  0  0  0  0
  8 22  1  0  0  0  0
  8 43  1  0  0  0  0
  8 44  1  0  0  0  0
  9 10  2  0  0  0  0
  9 11  1  0  0  0  0
  9 16  1  0  0  0  0
 11 14  2  0  0  0  0
 11 18  1  0  0  0  0
 12 17  2  0  0  0  0
 12 22  1  0  0  0  0
 13 14  1  0  0  0  0
 13 19  2  0  0  0  0
 14 29  1  0  0  0  0
 15 17  1  0  0  0  0
 15 20  1  0  0  0  0
 16 30  1  0  0  0  0
 17 31  1  0  0  0  0
 18 21  2  0  0  0  0
 18 32  1  0  0  0  0
 19 21  1  0  0  0  0
 19 33  1  0  0  0  0
 20 24  2  0  0  0  0
 20 25  1  0  0  0  0
 21 34  1  0  0  0  0
 23 35  1  0  0  0  0
 23 36  1  0  0  0  0
 23 37  1  0  0  0  0
 24 26  1  0  0  0  0
 24 38  1  0  0  0  0
 25 27  2  0  0  0  0
 25 39  1  0  0  0  0
 26 28  2  0  0  0  0
 26 40  1  0  0  0  0
 27 28  1  0  0  0  0
 27 41  1  0  0  0  0
 28 42  1  0  0  0  0
M  END
> <PUBCHEM_COMPOUND_CID>
49830732

> <PUBCHEM_CONFORMER_RMSD>
0.8

> <PUBCHEM_CONFORMER_DIVERSEORDER>
1
18
13
11
28
2
15
14
12
16
17
29
23
7
24
8
26
22
20
27
5
10
21
6
25
19
9
4
3

> <PUBCHEM_MMFF94_PARTIAL_CHARGES>
41
1 1.2
10 -0.03
11 0.05
12 -0.02
13 -0.01
14 -0.15
15 0.35
16 0.14
17 -0.14
18 -0.15
19 -0.15
2 -0.65
20 0.09
21 -0.15
22 0.62
23 0.11
24 -0.15
25 -0.15
26 -0.15
27 -0.15
28 -0.15
29 0.15
3 -0.65
30 0.15
31 0.15
32 0.15
33 0.15
34 0.15
38 0.15
39 0.15
4 -0.57
40 0.15
41 0.15
42 0.15
43 0.37
44 0.37
5 0.6
6 -0.58
7 -0.71
8 -0.8
9 -0.05

> <PUBCHEM_EFFECTIVE_ROTOR_COUNT>
4

> <PUBCHEM_PHARMACOPHORE_FEATURES>
10
1 2 acceptor
1 3 acceptor
1 4 acceptor
1 6 acceptor
1 7 acceptor
1 8 donor
5 5 7 9 10 16 rings
6 11 13 14 18 19 21 rings
6 20 24 25 26 27 28 rings
6 5 6 10 12 15 17 rings

> <PUBCHEM_HEAVY_ATOM_COUNT>
28

> <PUBCHEM_ATOM_DEF_STEREO_COUNT>
0

> <PUBCHEM_ATOM_UDEF_STEREO_COUNT>
0

> <PUBCHEM_BOND_DEF_STEREO_COUNT>
0

> <PUBCHEM_BOND_UDEF_STEREO_COUNT>
0

> <PUBCHEM_ISOTOPIC_ATOM_COUNT>
0

> <PUBCHEM_COMPONENT_COUNT>
1

> <PUBCHEM_CACTVS_TAUTO_COUNT>
2

> <PUBCHEM_CONFORMER_ID>
02F85B4C00000001

> <PUBCHEM_MMFF94_ENERGY>
78.9036

> <PUBCHEM_FEATURE_SELFOVERLAP>
50.893

> <PUBCHEM_SHAPE_FINGERPRINT>
10074138 170 17693064755413894184
10090160 65 18334580182784437484
10622 236 18129642146602221967
1100329 8 17835518606508981648
11014199 57 18268708312426511419
11069576 57 18340188735684131439
11135609 187 18337105791205967977
11135926 11 18408884070476953541
11552529 35 17553188918379692546
11991303 11 17606983947209468606
12107183 9 17836941001400241081
12553582 1 18050857619343425775
12788726 201 17703796925266537657
13009979 54 17987798480127961955
13140716 1 18410583898722058152
13690498 29 17043184762400581430
138480 1 18193001413530569642
13911987 19 18043825383633147796
14117953 113 17766276475672139375
14790565 3 18265341783947289684
14863182 85 18189919619845686188
15042514 8 16894560464121191530
15250474 111 18342454820801395163
15842332 3 18129670686100357521
16993438 75 17683807987867048531
17138139 8 17770768315278393263
19319366 153 18196926880226446831
20028762 73 17983865767395547438
20775438 99 17614794657979444061
20775530 9 18197766718363887667
21054139 6 18270118057851924316
21133410 52 18339343216112948690
21421861 104 18124617295967129184
21796203 349 17546209265980250058
23559900 14 18120368753310423632
23569917 315 18339083808762126782
4280585 95 17901933154786585074
4409770 3 17040063815386001865
46194498 28 17676761080900855997
463206 1 18336834082800285419
563151 97 18410860992110317045
56633871 153 17766843823699010395
70251023 43 18117838794213135739

> <PUBCHEM_SHAPE_MULTIPOLES>
542.54
10.28
5.99
1.33
8.13
4.48
-0.13
2.42
-1.27
-8.16
0.17
1.49
-0.28
-3.44

> <PUBCHEM_SHAPE_SELFOVERLAP>
1191.332

> <PUBCHEM_SHAPE_VOLUME>
295

> <PUBCHEM_COORDINATE_TYPE>
2
5
10

$$$$
