44329010
  -OEChem-10062122053D

 68 74  0     0  0  0  0  0  0999 V2000
    4.4174   -3.0429    1.5439 O   0  0  0  0  0  0  0  0  0  0  0  0
   -2.3801    3.5860   -0.4986 O   0  0  0  0  0  0  0  0  0  0  0  0
    0.2826    0.9171   -1.6536 N   0  0  0  0  0  0  0  0  0  0  0  0
    2.6665    1.7478   -0.4692 N   0  0  0  0  0  0  0  0  0  0  0  0
   -4.5220    0.0445    1.5171 N   0  0  0  0  0  0  0  0  0  0  0  0
    2.5287   -4.1529    0.7019 N   0  0  0  0  0  0  0  0  0  0  0  0
   -1.3938    1.9499    0.8194 N   0  0  0  0  0  0  0  0  0  0  0  0
    1.0853    0.0387   -1.0097 C   0  0  0  0  0  0  0  0  0  0  0  0
    0.7708   -1.3530   -0.8945 C   0  0  0  0  0  0  0  0  0  0  0  0
    1.5161   -2.3459   -0.2590 C   0  0  0  0  0  0  0  0  0  0  0  0
    2.2798    0.4539   -0.4161 C   0  0  0  0  0  0  0  0  0  0  0  0
    3.0507   -0.5627    0.2390 C   0  0  0  0  0  0  0  0  0  0  0  0
    2.7084   -1.9125    0.3293 C   0  0  0  0  0  0  0  0  0  0  0  0
   -0.4928   -1.2653   -1.6339 C   0  0  0  0  0  0  0  0  0  0  0  0
   -0.7455    0.0792   -2.0628 C   0  0  0  0  0  0  0  0  0  0  0  0
    1.3360   -3.8116   -0.0509 C   0  0  0  0  0  0  0  0  0  0  0  0
    4.1274    0.3462    0.6616 C   0  0  0  0  0  0  0  0  0  0  0  0
    0.3446    2.3320   -1.9165 C   0  0  0  0  0  0  0  0  0  0  0  0
    3.8643    1.6896    0.2273 C   0  0  0  0  0  0  0  0  0  0  0  0
    3.3599   -3.0627    0.9447 C   0  0  0  0  0  0  0  0  0  0  0  0
   -4.9756   -1.2873    1.0923 C   0  0  0  0  0  0  0  0  0  0  0  0
   -5.5760    1.0507    1.3261 C   0  0  0  0  0  0  0  0  0  0  0  0
   -6.2136   -1.7249    1.8767 C   0  0  0  0  0  0  0  0  0  0  0  0
   -6.8336    0.6895    2.1180 C   0  0  0  0  0  0  0  0  0  0  0  0
   -7.3376   -0.7026    1.7541 C   0  0  0  0  0  0  0  0  0  0  0  0
    0.0028    3.1922   -0.6981 C   0  0  0  0  0  0  0  0  0  0  0  0
   -3.3111    0.4280    0.7920 C   0  0  0  0  0  0  0  0  0  0  0  0
   -1.4486   -2.2533   -1.9699 C   0  0  0  0  0  0  0  0  0  0  0  0
   -1.8973    0.4127   -2.7908 C   0  0  0  0  0  0  0  0  0  0  0  0
   -2.5887    1.5489    1.5248 C   0  0  0  0  0  0  0  0  0  0  0  0
    5.3217    0.1270    1.3899 C   0  0  0  0  0  0  0  0  0  0  0  0
    4.7467    2.7438    0.5088 C   0  0  0  0  0  0  0  0  0  0  0  0
   -2.5930   -1.9094   -2.6958 C   0  0  0  0  0  0  0  0  0  0  0  0
   -1.3927    2.9477   -0.1448 C   0  0  0  0  0  0  0  0  0  0  0  0
   -2.8117   -0.5971   -3.0987 C   0  0  0  0  0  0  0  0  0  0  0  0
    6.1944    1.1854    1.6653 C   0  0  0  0  0  0  0  0  0  0  0  0
    5.9095    2.4730    1.2307 C   0  0  0  0  0  0  0  0  0  0  0  0
    0.4552   -4.0417    0.5533 H   0  0  0  0  0  0  0  0  0  0  0  0
    1.3358   -4.3692   -0.9904 H   0  0  0  0  0  0  0  0  0  0  0  0
    1.2920    2.5766   -2.4049 H   0  0  0  0  0  0  0  0  0  0  0  0
   -0.3887    2.5654   -2.6954 H   0  0  0  0  0  0  0  0  0  0  0  0
    2.3074    2.5732   -0.9031 H   0  0  0  0  0  0  0  0  0  0  0  0
   -4.1846   -2.0260    1.2708 H   0  0  0  0  0  0  0  0  0  0  0  0
   -5.1959   -1.2991    0.0166 H   0  0  0  0  0  0  0  0  0  0  0  0
   -5.8318    1.1509    0.2628 H   0  0  0  0  0  0  0  0  0  0  0  0
   -5.2560    2.0371    1.6750 H   0  0  0  0  0  0  0  0  0  0  0  0
   -6.5583   -2.6988    1.5111 H   0  0  0  0  0  0  0  0  0  0  0  0
   -5.9513   -1.8548    2.9344 H   0  0  0  0  0  0  0  0  0  0  0  0
   -6.6157    0.7301    3.1929 H   0  0  0  0  0  0  0  0  0  0  0  0
   -7.6192    1.4284    1.9230 H   0  0  0  0  0  0  0  0  0  0  0  0
   -7.7168   -0.6972    0.7248 H   0  0  0  0  0  0  0  0  0  0  0  0
   -8.1735   -0.9823    2.4045 H   0  0  0  0  0  0  0  0  0  0  0  0
    2.7378   -5.0937    1.0208 H   0  0  0  0  0  0  0  0  0  0  0  0
   -2.6201   -0.4233    0.7337 H   0  0  0  0  0  0  0  0  0  0  0  0
   -3.5388    0.7144   -0.2421 H   0  0  0  0  0  0  0  0  0  0  0  0
    0.7011    3.0880    0.1361 H   0  0  0  0  0  0  0  0  0  0  0  0
    0.0494    4.2485   -0.9917 H   0  0  0  0  0  0  0  0  0  0  0  0
   -1.3005   -3.2861   -1.6653 H   0  0  0  0  0  0  0  0  0  0  0  0
   -2.1061    1.4268   -3.1142 H   0  0  0  0  0  0  0  0  0  0  0  0
   -3.2108    2.4393    1.6491 H   0  0  0  0  0  0  0  0  0  0  0  0
   -2.2749    1.2176    2.5211 H   0  0  0  0  0  0  0  0  0  0  0  0
    5.5802   -0.8645    1.7471 H   0  0  0  0  0  0  0  0  0  0  0  0
    4.5324    3.7541    0.1731 H   0  0  0  0  0  0  0  0  0  0  0  0
   -3.3196   -2.6780   -2.9455 H   0  0  0  0  0  0  0  0  0  0  0  0
   -3.7099   -0.3508   -3.6594 H   0  0  0  0  0  0  0  0  0  0  0  0
   -0.5276    1.4725    1.0502 H   0  0  0  0  0  0  0  0  0  0  0  0
    7.1056    0.9951    2.2262 H   0  0  0  0  0  0  0  0  0  0  0  0
    6.6003    3.2817    1.4549 H   0  0  0  0  0  0  0  0  0  0  0  0
  1 20  2  0  0  0  0
  2 34  2  0  0  0  0
  3  8  1  0  0  0  0
  3 15  1  0  0  0  0
  3 18  1  0  0  0  0
  4 11  1  0  0  0  0
  4 19  1  0  0  0  0
  4 42  1  0  0  0  0
  5 21  1  0  0  0  0
  5 22  1  0  0  0  0
  5 27  1  0  0  0  0
  6 16  1  0  0  0  0
  6 20  1  0  0  0  0
  6 53  1  0  0  0  0
  7 30  1  0  0  0  0
  7 34  1  0  0  0  0
  7 66  1  0  0  0  0
  8  9  1  0  0  0  0
  8 11  2  0  0  0  0
  9 10  2  0  0  0  0
  9 14  1  0  0  0  0
 10 13  1  0  0  0  0
 10 16  1  0  0  0  0
 11 12  1  0  0  0  0
 12 13  2  0  0  0  0
 12 17  1  0  0  0  0
 13 20  1  0  0  0  0
 14 15  1  0  0  0  0
 14 28  2  0  0  0  0
 15 29  2  0  0  0  0
 16 38  1  0  0  0  0
 16 39  1  0  0  0  0
 17 19  1  0  0  0  0
 17 31  2  0  0  0  0
 18 26  1  0  0  0  0
 18 40  1  0  0  0  0
 18 41  1  0  0  0  0
 19 32  2  0  0  0  0
 21 23  1  0  0  0  0
 21 43  1  0  0  0  0
 21 44  1  0  0  0  0
 22 24  1  0  0  0  0
 22 45  1  0  0  0  0
 22 46  1  0  0  0  0
 23 25  1  0  0  0  0
 23 47  1  0  0  0  0
 23 48  1  0  0  0  0
 24 25  1  0  0  0  0
 24 49  1  0  0  0  0
 24 50  1  0  0  0  0
 25 51  1  0  0  0  0
 25 52  1  0  0  0  0
 26 34  1  0  0  0  0
 26 56  1  0  0  0  0
 26 57  1  0  0  0  0
 27 30  1  0  0  0  0
 27 54  1  0  0  0  0
 27 55  1  0  0  0  0
 28 33  1  0  0  0  0
 28 58  1  0  0  0  0
 29 35  1  0  0  0  0
 29 59  1  0  0  0  0
 30 60  1  0  0  0  0
 30 61  1  0  0  0  0
 31 36  1  0  0  0  0
 31 62  1  0  0  0  0
 32 37  1  0  0  0  0
 32 63  1  0  0  0  0
 33 35  2  0  0  0  0
 33 64  1  0  0  0  0
 35 65  1  0  0  0  0
 36 37  2  0  0  0  0
 36 67  1  0  0  0  0
 37 68  1  0  0  0  0
M  END
> <PUBCHEM_COMPOUND_CID>
44329010

> <PUBCHEM_CONFORMER_RMSD>
1

> <PUBCHEM_CONFORMER_DIVERSEORDER>
1
3
7
29
26
23
32
21
52
31
22
43
33
17
14
39
50
6
25
44
38
10
53
19
30
36
20
48
16
8
15
5
47
51
37
35
49
54
27
40
41
12
55
28
11
24
42
9
34
4
13
2
46
45
18

> <PUBCHEM_MMFF94_PARTIAL_CHARGES>
43
1 -0.57
10 -0.14
11 -0.05
12 -0.01
13 0.09
15 -0.15
16 0.44
18 0.26
19 -0.15
2 -0.57
20 0.54
21 0.27
22 0.27
26 0.06
27 0.27
28 -0.15
29 -0.15
3 -0.04
30 0.3
31 -0.15
32 -0.15
33 -0.15
34 0.57
35 -0.15
36 -0.15
37 -0.15
4 -0.05
42 0.27
5 -0.81
53 0.37
58 0.15
59 0.15
6 -0.73
62 0.15
63 0.15
64 0.15
65 0.15
66 0.37
67 0.15
68 0.15
7 -0.73
8 -0.05
9 -0.01

> <PUBCHEM_EFFECTIVE_ROTOR_COUNT>
8.6

> <PUBCHEM_PHARMACOPHORE_FEATURES>
15
1 1 acceptor
1 2 acceptor
1 3 cation
1 4 cation
1 4 donor
1 5 cation
1 6 donor
1 7 donor
5 3 8 9 14 15 rings
5 4 11 12 17 19 rings
5 6 10 13 16 20 rings
6 14 15 28 29 33 35 rings
6 17 19 31 32 36 37 rings
6 5 21 22 23 24 25 rings
6 8 9 10 11 12 13 rings

> <PUBCHEM_HEAVY_ATOM_COUNT>
37

> <PUBCHEM_ATOM_DEF_STEREO_COUNT>
0

> <PUBCHEM_ATOM_UDEF_STEREO_COUNT>
0

> <PUBCHEM_BOND_DEF_STEREO_COUNT>
0

> <PUBCHEM_BOND_UDEF_STEREO_COUNT>
0

> <PUBCHEM_ISOTOPIC_ATOM_COUNT>
0

> <PUBCHEM_COMPONENT_COUNT>
1

> <PUBCHEM_CACTVS_TAUTO_COUNT>
14

> <PUBCHEM_CONFORMER_ID>
02A4683200000001

> <PUBCHEM_MMFF94_ENERGY>
111.4172

> <PUBCHEM_FEATURE_SELFOVERLAP>
76.589

> <PUBCHEM_SHAPE_FINGERPRINT>
10006869 2 18201442428706022425
10190108 129 18335712628416208674
11578080 2 13695876883535892876
11720765 8 11819283303293769567
12422481 6 17916031153497665663
12633046 712 17684085781998672934
12788726 201 17559365068329106917
12977781 61 16589405519820525898
13140716 1 17832117783423172782
13583140 156 18048876295089431276
13782708 43 16153696635512198928
14028597 1 18057593455609232487
14790565 3 18118377752996687284
14840074 17 18060142055112017221
15297060 5 16200159823690739071
15684970 41 17836350555040290462
19319366 153 18202563981910770106
23572383 38 18041007241268443875
244849 19 17677882440341736735
3380486 145 18115288064681300935
392239 28 18267288997554201396
469060 322 18264469836481473396
484985 159 17027402462599522707

> <PUBCHEM_SHAPE_MULTIPOLES>
724.8
14.13
4.36
2.68
11.14
1.5
-1.54
-2.88
14.89
-3.59
0.31
3.39
0.5
-0.81

> <PUBCHEM_SHAPE_SELFOVERLAP>
1623.316

> <PUBCHEM_SHAPE_VOLUME>
384.3

> <PUBCHEM_COORDINATE_TYPE>
2
5
10

$$$$
