25164882
  -OEChem-10052115183D

 41 45  0     0  0  0  0  0  0999 V2000
   -1.6562   -1.4285   -0.1055 N   0  0  0  0  0  0  0  0  0  0  0  0
   -1.3273   -2.1784   -1.1699 N   0  0  0  0  0  0  0  0  0  0  0  0
   -0.0274   -2.0087   -1.3852 N   0  0  0  0  0  0  0  0  0  0  0  0
    5.6269    0.7714   -0.1259 N   0  0  0  0  0  0  0  0  0  0  0  0
    5.4923    2.0997   -0.2761 N   0  0  0  0  0  0  0  0  0  0  0  0
   -0.5398    0.1879    1.5826 C   0  0  0  0  0  0  0  0  0  0  0  0
   -1.0386   -0.3037    2.9096 C   0  0  0  0  0  0  0  0  0  0  0  0
    0.4309   -0.0911    2.6924 C   0  0  0  0  0  0  0  0  0  0  0  0
   -0.5793   -0.7595    0.3892 C   0  0  0  0  0  0  0  0  0  0  0  0
    0.4458   -1.1427   -0.4388 C   0  0  0  0  0  0  0  0  0  0  0  0
   -3.0138   -1.4031    0.3772 C   0  0  0  0  0  0  0  0  0  0  0  0
    1.8151   -0.7160   -0.3486 C   0  0  0  0  0  0  0  0  0  0  0  0
   -3.7709   -0.1643   -0.0329 C   0  0  0  0  0  0  0  0  0  0  0  0
    2.1197    0.6465   -0.4592 C   0  0  0  0  0  0  0  0  0  0  0  0
    2.8216   -1.6632   -0.1515 C   0  0  0  0  0  0  0  0  0  0  0  0
    3.4643    1.0431   -0.3674 C   0  0  0  0  0  0  0  0  0  0  0  0
    4.4468    0.0791   -0.1709 C   0  0  0  0  0  0  0  0  0  0  0  0
    4.1647   -1.2840   -0.0581 C   0  0  0  0  0  0  0  0  0  0  0  0
   -4.3432    0.6569    0.9386 C   0  0  0  0  0  0  0  0  0  0  0  0
   -3.8978    0.1607   -1.3836 C   0  0  0  0  0  0  0  0  0  0  0  0
    4.1754    2.2611   -0.4228 C   0  0  0  0  0  0  0  0  0  0  0  0
   -5.0426    1.8027    0.5597 C   0  0  0  0  0  0  0  0  0  0  0  0
   -4.5971    1.3066   -1.7624 C   0  0  0  0  0  0  0  0  0  0  0  0
   -5.1695    2.1276   -0.7906 C   0  0  0  0  0  0  0  0  0  0  0  0
   -0.7298    1.2291    1.3448 H   0  0  0  0  0  0  0  0  0  0  0  0
   -1.3630   -1.3302    3.0265 H   0  0  0  0  0  0  0  0  0  0  0  0
   -1.5623    0.4022    3.5429 H   0  0  0  0  0  0  0  0  0  0  0  0
    0.8952    0.7578    3.1800 H   0  0  0  0  0  0  0  0  0  0  0  0
    1.0566   -0.9743    2.6504 H   0  0  0  0  0  0  0  0  0  0  0  0
   -2.9946   -1.5254    1.4634 H   0  0  0  0  0  0  0  0  0  0  0  0
   -3.5338   -2.2849   -0.0185 H   0  0  0  0  0  0  0  0  0  0  0  0
    1.3443    1.3909   -0.6193 H   0  0  0  0  0  0  0  0  0  0  0  0
    2.5754   -2.7200   -0.0647 H   0  0  0  0  0  0  0  0  0  0  0  0
    4.9478   -2.0180    0.0955 H   0  0  0  0  0  0  0  0  0  0  0  0
   -4.2517    0.4165    1.9945 H   0  0  0  0  0  0  0  0  0  0  0  0
   -3.4667   -0.4711   -2.1552 H   0  0  0  0  0  0  0  0  0  0  0  0
    3.7866    3.2597   -0.5641 H   0  0  0  0  0  0  0  0  0  0  0  0
    6.5585    0.3972    0.0047 H   0  0  0  0  0  0  0  0  0  0  0  0
   -5.4881    2.4420    1.3163 H   0  0  0  0  0  0  0  0  0  0  0  0
   -4.6978    1.5588   -2.8139 H   0  0  0  0  0  0  0  0  0  0  0  0
   -5.7143    3.0196   -1.0857 H   0  0  0  0  0  0  0  0  0  0  0  0
  1  2  1  0  0  0  0
  1  9  1  0  0  0  0
  1 11  1  0  0  0  0
  2  3  2  0  0  0  0
  3 10  1  0  0  0  0
  4  5  1  0  0  0  0
  4 17  1  0  0  0  0
  4 38  1  0  0  0  0
  5 21  2  0  0  0  0
  6  7  1  0  0  0  0
  6  8  1  0  0  0  0
  6  9  1  0  0  0  0
  6 25  1  0  0  0  0
  7  8  1  0  0  0  0
  7 26  1  0  0  0  0
  7 27  1  0  0  0  0
  8 28  1  0  0  0  0
  8 29  1  0  0  0  0
  9 10  2  0  0  0  0
 10 12  1  0  0  0  0
 11 13  1  0  0  0  0
 11 30  1  0  0  0  0
 11 31  1  0  0  0  0
 12 14  2  0  0  0  0
 12 15  1  0  0  0  0
 13 19  2  0  0  0  0
 13 20  1  0  0  0  0
 14 16  1  0  0  0  0
 14 32  1  0  0  0  0
 15 18  2  0  0  0  0
 15 33  1  0  0  0  0
 16 17  2  0  0  0  0
 16 21  1  0  0  0  0
 17 18  1  0  0  0  0
 18 34  1  0  0  0  0
 19 22  1  0  0  0  0
 19 35  1  0  0  0  0
 20 23  2  0  0  0  0
 20 36  1  0  0  0  0
 21 37  1  0  0  0  0
 22 24  2  0  0  0  0
 22 39  1  0  0  0  0
 23 24  1  0  0  0  0
 23 40  1  0  0  0  0
 24 41  1  0  0  0  0
M  END
> <PUBCHEM_COMPOUND_CID>
25164882

> <PUBCHEM_CONFORMER_RMSD>
0.8

> <PUBCHEM_CONFORMER_DIVERSEORDER>
1
6
17
10
11
19
21
9
14
5
16
2
12
20
3
13
15
7
18
4
8

> <PUBCHEM_MMFF94_PARTIAL_CHARGES>
38
1 0.31
10 0.17
11 0.4
12 0.05
13 -0.14
14 -0.15
15 -0.15
17 -0.15
18 -0.15
19 -0.15
2 -0.42
20 -0.15
21 0.14
22 -0.15
23 -0.15
24 -0.15
25 0.1
26 0.1
27 0.1
28 0.1
29 0.1
3 -0.23
32 0.15
33 0.15
34 0.15
35 0.15
36 0.15
37 0.15
38 0.27
39 0.15
4 0.3
40 0.15
41 0.15
5 -0.71
6 -0.01
7 -0.2
8 -0.2
9 -0.24

> <PUBCHEM_EFFECTIVE_ROTOR_COUNT>
4.6

> <PUBCHEM_PHARMACOPHORE_FEATURES>
6
1 4 donor
1 5 acceptor
5 1 2 3 9 10 rings
5 4 5 16 17 21 rings
6 12 14 15 16 17 18 rings
6 13 19 20 22 23 24 rings

> <PUBCHEM_HEAVY_ATOM_COUNT>
24

> <PUBCHEM_ATOM_DEF_STEREO_COUNT>
0

> <PUBCHEM_ATOM_UDEF_STEREO_COUNT>
0

> <PUBCHEM_BOND_DEF_STEREO_COUNT>
0

> <PUBCHEM_BOND_UDEF_STEREO_COUNT>
0

> <PUBCHEM_ISOTOPIC_ATOM_COUNT>
0

> <PUBCHEM_COMPONENT_COUNT>
1

> <PUBCHEM_CACTVS_TAUTO_COUNT>
2

> <PUBCHEM_CONFORMER_ID>
017FFC5200000001

> <PUBCHEM_MMFF94_ENERGY>
50.816

> <PUBCHEM_FEATURE_SELFOVERLAP>
30.539

> <PUBCHEM_SHAPE_FINGERPRINT>
10006869 2 17098311148616878933
10366900 7 15554456210459013710
10692045 39 17095788937899380720
11961588 58 18261939805097806479
12293681 160 17275108322915948058
12553582 1 16056886844484549083
12788726 201 17059508330625718993
12969540 114 17060054882256729806
13103583 49 12107793956648172781
13149001 5 16557887070091384447
13544653 18 10375866394453680159
13583140 156 18261968443196308346
13690498 29 17272562000020338047
13911987 19 17489313018150046127
14713325 29 18338804536807921563
14739800 52 17386552562824224961
15188451 53 15213594450553355337
15209294 21 16732698346550378283
15238133 3 17313111851988392716
16752209 62 17060627663685898906
17349148 13 17275111604634659654
17357779 13 15339124558502650906
17959699 21 18413389856258553848
18222031 100 14405182859198833986
20511986 3 18272639174217334466
20715895 44 18269837510619765401
20832881 197 17315348133995878554
21304253 335 18334863818024028252
21304303 64 18271818933984932705
21475661 188 17676203572059399933
22393880 68 16415180275133216141
22950370 63 8142078775812115423
23402539 116 16415489250458326042
23559900 14 17846221008298070086
244849 19 17678200242199453186
2838139 119 18335977601659498885
2916195 48 17894349986198110321
314194 84 8358243848464903605
3633792 109 17916588627262283070
392239 28 16661227935146564457
394222 165 18339359660708970450
5104073 3 18186238433129689874
6913067 236 14045741483272311580
7226269 152 17603584127711715852
79837 15 15792028808484395913
999808 66 12180381541303637864

> <PUBCHEM_SHAPE_MULTIPOLES>
469
12.24
2.25
1.86
1.48
0.64
1.42
9.2
-2.33
0.42
-0.62
-1.45
-0.49
0.41

> <PUBCHEM_SHAPE_SELFOVERLAP>
1046.734

> <PUBCHEM_SHAPE_VOLUME>
252.9

> <PUBCHEM_COORDINATE_TYPE>
2
5
10

$$$$
