44406013
  -OEChem-10052120433D

 42 45  0     0  0  0  0  0  0999 V2000
   -0.6253   -3.4874   -0.5446 S   0  0  0  0  0  0  0  0  0  0  0  0
    2.1761   -3.3990    0.2912 O   0  0  0  0  0  0  0  0  0  0  0  0
   -3.8404   -1.5323   -0.8209 N   0  0  0  0  0  0  0  0  0  0  0  0
    2.3046   -1.2291    1.0985 N   0  0  0  0  0  0  0  0  0  0  0  0
   -3.1563   -2.7064   -1.0231 N   0  0  0  0  0  0  0  0  0  0  0  0
   -1.8577   -1.1012   -0.0869 C   0  0  0  0  0  0  0  0  0  0  0  0
   -3.0702   -0.5216   -0.2457 C   0  0  0  0  0  0  0  0  0  0  0  0
   -1.9789   -2.3915   -0.5670 C   0  0  0  0  0  0  0  0  0  0  0  0
   -0.5311   -0.9283    0.3645 C   0  0  0  0  0  0  0  0  0  0  0  0
    0.2254   -2.1022    0.1838 C   0  0  0  0  0  0  0  0  0  0  0  0
    4.6233   -0.8314    0.3377 C   0  0  0  0  0  0  0  0  0  0  0  0
    3.7003   -1.2712    1.4715 C   0  0  0  0  0  0  0  0  0  0  0  0
   -3.5823    0.7926    0.0569 C   0  0  0  0  0  0  0  0  0  0  0  0
    4.3765    0.5902   -0.1041 C   0  0  0  0  0  0  0  0  0  0  0  0
    1.6017   -2.3062    0.5200 C   0  0  0  0  0  0  0  0  0  0  0  0
   -2.7305    1.8967    0.0271 C   0  0  0  0  0  0  0  0  0  0  0  0
   -4.9292    0.9593    0.3790 C   0  0  0  0  0  0  0  0  0  0  0  0
    3.4555    0.8563   -1.1174 C   0  0  0  0  0  0  0  0  0  0  0  0
    5.0698    1.6385    0.5008 C   0  0  0  0  0  0  0  0  0  0  0  0
   -3.2255    3.1677    0.3194 C   0  0  0  0  0  0  0  0  0  0  0  0
   -5.4243    2.2303    0.6711 C   0  0  0  0  0  0  0  0  0  0  0  0
    3.2278    2.1705   -1.5256 C   0  0  0  0  0  0  0  0  0  0  0  0
    4.8420    2.9527    0.0928 C   0  0  0  0  0  0  0  0  0  0  0  0
   -4.5724    3.3344    0.6414 C   0  0  0  0  0  0  0  0  0  0  0  0
    3.9211    3.2187   -0.9205 C   0  0  0  0  0  0  0  0  0  0  0  0
   -0.1482   -0.0125    0.7944 H   0  0  0  0  0  0  0  0  0  0  0  0
    5.6676   -0.9365    0.6576 H   0  0  0  0  0  0  0  0  0  0  0  0
    4.5064   -1.5018   -0.5239 H   0  0  0  0  0  0  0  0  0  0  0  0
    3.9538   -2.2921    1.7766 H   0  0  0  0  0  0  0  0  0  0  0  0
    3.8187   -0.6192    2.3440 H   0  0  0  0  0  0  0  0  0  0  0  0
   -4.8122   -1.4929   -1.1027 H   0  0  0  0  0  0  0  0  0  0  0  0
    1.8238   -0.3528    1.2687 H   0  0  0  0  0  0  0  0  0  0  0  0
   -1.6795    1.7990   -0.2315 H   0  0  0  0  0  0  0  0  0  0  0  0
   -5.6155    0.1172    0.4206 H   0  0  0  0  0  0  0  0  0  0  0  0
    2.9097    0.0492   -1.5989 H   0  0  0  0  0  0  0  0  0  0  0  0
    5.7884    1.4440    1.2926 H   0  0  0  0  0  0  0  0  0  0  0  0
   -2.5630    4.0280    0.2939 H   0  0  0  0  0  0  0  0  0  0  0  0
   -6.4725    2.3604    0.9241 H   0  0  0  0  0  0  0  0  0  0  0  0
    2.5108    2.3775   -2.3146 H   0  0  0  0  0  0  0  0  0  0  0  0
    5.3813    3.7691    0.5644 H   0  0  0  0  0  0  0  0  0  0  0  0
   -4.9578    4.3239    0.8689 H   0  0  0  0  0  0  0  0  0  0  0  0
    3.7436    4.2419   -1.2381 H   0  0  0  0  0  0  0  0  0  0  0  0
  1  8  1  0  0  0  0
  1 10  1  0  0  0  0
  2 15  2  0  0  0  0
  3  5  1  0  0  0  0
  3  7  1  0  0  0  0
  3 31  1  0  0  0  0
  4 12  1  0  0  0  0
  4 15  1  0  0  0  0
  4 32  1  0  0  0  0
  5  8  2  0  0  0  0
  6  7  2  0  0  0  0
  6  8  1  0  0  0  0
  6  9  1  0  0  0  0
  7 13  1  0  0  0  0
  9 10  2  0  0  0  0
  9 26  1  0  0  0  0
 10 15  1  0  0  0  0
 11 12  1  0  0  0  0
 11 14  1  0  0  0  0
 11 27  1  0  0  0  0
 11 28  1  0  0  0  0
 12 29  1  0  0  0  0
 12 30  1  0  0  0  0
 13 16  2  0  0  0  0
 13 17  1  0  0  0  0
 14 18  2  0  0  0  0
 14 19  1  0  0  0  0
 16 20  1  0  0  0  0
 16 33  1  0  0  0  0
 17 21  2  0  0  0  0
 17 34  1  0  0  0  0
 18 22  1  0  0  0  0
 18 35  1  0  0  0  0
 19 23  2  0  0  0  0
 19 36  1  0  0  0  0
 20 24  2  0  0  0  0
 20 37  1  0  0  0  0
 21 24  1  0  0  0  0
 21 38  1  0  0  0  0
 22 25  2  0  0  0  0
 22 39  1  0  0  0  0
 23 25  1  0  0  0  0
 23 40  1  0  0  0  0
 24 41  1  0  0  0  0
 25 42  1  0  0  0  0
M  END
> <PUBCHEM_COMPOUND_CID>
44406013

> <PUBCHEM_CONFORMER_RMSD>
0.8

> <PUBCHEM_CONFORMER_DIVERSEORDER>
1
40
26
13
22
2
23
10
36
39
9
21
7
27
45
8
42
16
34
6
28
46
33
15
18
4
41
11
3
31
24
38
14
25
12
17
37
20
5
29
32
35
19
44
30
43

> <PUBCHEM_MMFF94_PARTIAL_CHARGES>
38
1 -0.11
10 -0.05
11 0.14
12 0.3
13 0.05
14 -0.14
15 0.71
16 -0.15
17 -0.15
18 -0.15
19 -0.15
2 -0.57
20 -0.15
21 -0.15
22 -0.15
23 -0.15
24 -0.15
25 -0.15
26 0.15
3 0.3
31 0.27
32 0.37
33 0.15
34 0.15
35 0.15
36 0.15
37 0.15
38 0.15
39 0.15
4 -0.73
40 0.15
41 0.15
42 0.15
5 -0.73
6 -0.01
7 -0.2
8 0.39
9 -0.15

> <PUBCHEM_EFFECTIVE_ROTOR_COUNT>
6

> <PUBCHEM_PHARMACOPHORE_FEATURES>
8
1 2 acceptor
1 3 donor
1 4 donor
1 5 acceptor
5 1 6 8 9 10 rings
5 3 5 6 7 8 rings
6 13 16 17 20 21 24 rings
6 14 18 19 22 23 25 rings

> <PUBCHEM_HEAVY_ATOM_COUNT>
25

> <PUBCHEM_ATOM_DEF_STEREO_COUNT>
0

> <PUBCHEM_ATOM_UDEF_STEREO_COUNT>
0

> <PUBCHEM_BOND_DEF_STEREO_COUNT>
0

> <PUBCHEM_BOND_UDEF_STEREO_COUNT>
0

> <PUBCHEM_ISOTOPIC_ATOM_COUNT>
0

> <PUBCHEM_COMPONENT_COUNT>
1

> <PUBCHEM_CACTVS_TAUTO_COUNT>
7

> <PUBCHEM_CONFORMER_ID>
02A594FD00000001

> <PUBCHEM_MMFF94_ENERGY>
84.1042

> <PUBCHEM_FEATURE_SELFOVERLAP>
40.864

> <PUBCHEM_SHAPE_FINGERPRINT>
10670039 82 18410292549383327884
10871710 139 18340486793792821695
10937287 8 18410579491299544110
11059048 146 17972337362746803692
11374522 363 18042677308800048540
11408170 253 15301989996606432828
11513181 2 18272936029150673166
12107183 9 18337383826135167650
12422481 6 17530967926090487525
12788726 201 17832160676338249494
12925494 130 17903355905891155669
12978246 48 18265613186793207225
13398642 44 17750816495597724796
13583140 156 17025424501336647355
13617811 41 18122327237259789717
14117953 113 17834389025841917116
14251764 38 18339083804055241908
14251764 75 18337686298695902344
14429114 114 18268143343706501584
1454969 45 18342174463259622667
14556957 393 18127951162068716191
14739800 52 18125421254548835520
14790565 3 18340771438465926785
14932702 115 18059857298194951808
14950920 106 17458343018121734635
15001296 14 18334575763036418456
15142526 21 18113902645496484843
15297060 5 18131355185253417154
15475509 8 18337959966376604118
16760501 71 18335709304138084089
17810953 82 18336831888019099884
21049683 271 17757540125999408247
21864079 5 18408606984957027202
235170 7 17202218489175931556
23559900 14 17916033364857600238
245318 6 18115042864703174245
312425 83 18059587944164134854
325973 47 17400353451928916436
338550 245 18334861614922387892
3472631 163 18342176652680146143
38570 142 17532963634605642068
474 4 18187081728362187778
6700243 42 17483704538144043822
7064713 232 18339069420051336432
7808743 9 18341889692988227747
9980921 221 16672784021483122564
9981440 41 18335142045905216747

> <PUBCHEM_SHAPE_MULTIPOLES>
497.53
12.72
5.16
1.08
1.31
0.16
-0.07
11.89
1.2
-0.85
-0.41
0.71
0.03
-2.9

> <PUBCHEM_SHAPE_SELFOVERLAP>
1083.937

> <PUBCHEM_SHAPE_VOLUME>
272.6

> <PUBCHEM_COORDINATE_TYPE>
2
5
10

$$$$
