57505528
  -OEChem-10062121563D

 42 45  0     0  0  0  0  0  0999 V2000
   -7.6061   -1.7589   -0.3105 F   0  0  0  0  0  0  0  0  0  0  0  0
   -6.3131   -2.1705    1.3884 F   0  0  0  0  0  0  0  0  0  0  0  0
   -7.2989   -0.2460    1.2208 F   0  0  0  0  0  0  0  0  0  0  0  0
    3.7514    1.7001   -1.0542 O   0  0  0  0  0  0  0  0  0  0  0  0
   -2.4324    1.6151    1.4336 O   0  0  0  0  0  0  0  0  0  0  0  0
   -0.9654    0.9917   -0.2949 N   0  0  0  0  0  0  0  0  0  0  0  0
    4.7234   -1.3009    0.4373 N   0  0  0  0  0  0  0  0  0  0  0  0
    3.9413   -0.2022    0.2410 N   0  0  0  0  0  0  0  0  0  0  0  0
    6.3852   -2.7676    0.1932 N   0  0  0  0  0  0  0  0  0  0  0  0
   -3.3384    0.4222   -0.3463 C   0  0  0  0  0  0  0  0  0  0  0  0
    0.2588    1.5206    0.1158 C   0  0  0  0  0  0  0  0  0  0  0  0
   -5.4911   -0.6731   -0.2862 C   0  0  0  0  0  0  0  0  0  0  0  0
    2.6183    1.8751   -0.2647 C   0  0  0  0  0  0  0  0  0  0  0  0
   -4.4238   -0.0696    0.3789 C   0  0  0  0  0  0  0  0  0  0  0  0
    1.3944    1.3468   -0.6754 C   0  0  0  0  0  0  0  0  0  0  0  0
   -2.2006    1.0647    0.3625 C   0  0  0  0  0  0  0  0  0  0  0  0
    5.8772   -1.6358   -0.2507 C   0  0  0  0  0  0  0  0  0  0  0  0
   -3.3202    0.3105   -1.7366 C   0  0  0  0  0  0  0  0  0  0  0  0
    4.3855    0.5627   -0.7036 C   0  0  0  0  0  0  0  0  0  0  0  0
    0.3472    2.2228    1.3180 C   0  0  0  0  0  0  0  0  0  0  0  0
   -5.4730   -0.7848   -1.6766 C   0  0  0  0  0  0  0  0  0  0  0  0
    2.7066    2.5771    0.9375 C   0  0  0  0  0  0  0  0  0  0  0  0
   -4.3875   -0.2932   -2.4017 C   0  0  0  0  0  0  0  0  0  0  0  0
    6.3026   -0.7511   -1.2702 C   0  0  0  0  0  0  0  0  0  0  0  0
    1.5711    2.7508    1.7289 C   0  0  0  0  0  0  0  0  0  0  0  0
    5.5925    0.3540   -1.5309 C   0  0  0  0  0  0  0  0  0  0  0  0
   -6.6511   -1.2000    0.4887 C   0  0  0  0  0  0  0  0  0  0  0  0
    4.5060   -2.2858    1.3641 C   0  0  0  0  0  0  0  0  0  0  0  0
    5.5401   -3.1748    1.1938 C   0  0  0  0  0  0  0  0  0  0  0  0
   -4.4455    0.0073    1.4635 H   0  0  0  0  0  0  0  0  0  0  0  0
    1.3334    0.8016   -1.6146 H   0  0  0  0  0  0  0  0  0  0  0  0
   -0.9153    0.4653   -1.1625 H   0  0  0  0  0  0  0  0  0  0  0  0
   -2.5150    0.7114   -2.3448 H   0  0  0  0  0  0  0  0  0  0  0  0
   -0.4845    2.3996    1.9850 H   0  0  0  0  0  0  0  0  0  0  0  0
   -6.2949   -1.2496   -2.2140 H   0  0  0  0  0  0  0  0  0  0  0  0
    3.6568    2.9919    1.2628 H   0  0  0  0  0  0  0  0  0  0  0  0
   -4.3777   -0.3729   -3.4849 H   0  0  0  0  0  0  0  0  0  0  0  0
    7.2016   -0.9772   -1.8325 H   0  0  0  0  0  0  0  0  0  0  0  0
    5.8697    1.0650   -2.2978 H   0  0  0  0  0  0  0  0  0  0  0  0
    1.6415    3.2976    2.6647 H   0  0  0  0  0  0  0  0  0  0  0  0
    3.6622   -2.2666    2.0396 H   0  0  0  0  0  0  0  0  0  0  0  0
    5.7189   -4.0884    1.7417 H   0  0  0  0  0  0  0  0  0  0  0  0
  1 27  1  0  0  0  0
  2 27  1  0  0  0  0
  3 27  1  0  0  0  0
  4 13  1  0  0  0  0
  4 19  1  0  0  0  0
  5 16  2  0  0  0  0
  6 11  1  0  0  0  0
  6 16  1  0  0  0  0
  6 32  1  0  0  0  0
  7  8  1  0  0  0  0
  7 17  1  0  0  0  0
  7 28  1  0  0  0  0
  8 19  2  0  0  0  0
  9 17  2  0  0  0  0
  9 29  1  0  0  0  0
 10 14  2  0  0  0  0
 10 16  1  0  0  0  0
 10 18  1  0  0  0  0
 11 15  2  0  0  0  0
 11 20  1  0  0  0  0
 12 14  1  0  0  0  0
 12 21  2  0  0  0  0
 12 27  1  0  0  0  0
 13 15  1  0  0  0  0
 13 22  2  0  0  0  0
 14 30  1  0  0  0  0
 15 31  1  0  0  0  0
 17 24  1  0  0  0  0
 18 23  2  0  0  0  0
 18 33  1  0  0  0  0
 19 26  1  0  0  0  0
 20 25  2  0  0  0  0
 20 34  1  0  0  0  0
 21 23  1  0  0  0  0
 21 35  1  0  0  0  0
 22 25  1  0  0  0  0
 22 36  1  0  0  0  0
 23 37  1  0  0  0  0
 24 26  2  0  0  0  0
 24 38  1  0  0  0  0
 25 40  1  0  0  0  0
 26 39  1  0  0  0  0
 28 29  2  0  0  0  0
 28 41  1  0  0  0  0
 29 42  1  0  0  0  0
M  END
> <PUBCHEM_COMPOUND_CID>
57505528

> <PUBCHEM_CONFORMER_RMSD>
0.8

> <PUBCHEM_CONFORMER_DIVERSEORDER>
7
96
130
73
195
155
184
156
168
35
129
5
69
128
18
133
123
141
119
153
45
122
139
92
151
38
78
170
134
191
94
89
118
124
193
71
90
182
189
99
85
149
111
147
101
112
144
116
98
164
154
146
148
3
171
117
192
108
127
57
16
61
43
135
80
125
100
131
140
86
2
169
121
167
28
194
36
1
81
132
126
166
110
142
102
68
6
22
27
174
152
186
183
138
15
136
137
91
29
67
66
165
103
52
157
26
187
145
23
161
109
50
53
21
31
162
72
175
49
105
150
58
54
56
113
79
13
30
185
9
188
48
173
55
42
115
120
60
87
74
24
143
114
70
97
12
20
95
33
44
40
65
93
180
104
63
25
8
59
172
77
19
178
37
41
4
88
158
32
107
34
17
39
84
176
76
177
160
10
46
159
190
14
179
75
11
64
51
181
106
83
163
47
62
82

> <PUBCHEM_MMFF94_PARTIAL_CHARGES>
42
1 -0.34
10 0.09
11 0.12
12 -0.14
13 0.08
14 -0.15
15 -0.15
16 0.54
17 0.14
18 -0.15
19 0.59
2 -0.34
20 -0.15
21 -0.15
22 -0.15
23 -0.15
24 -0.11
25 -0.15
26 -0.14
27 1.16
28 -0.3
29 0.08
3 -0.34
30 0.15
31 0.15
32 0.37
33 0.15
34 0.15
35 0.15
36 0.15
37 0.15
38 0.15
39 0.15
4 -0.23
40 0.15
41 0.15
42 0.15
5 -0.57
6 -0.55
7 0.51
8 -0.65
9 -0.57

> <PUBCHEM_EFFECTIVE_ROTOR_COUNT>
6

> <PUBCHEM_PHARMACOPHORE_FEATURES>
7
1 5 acceptor
1 6 donor
3 7 9 17 cation
5 7 9 17 28 29 rings
6 10 12 14 18 21 23 rings
6 11 13 15 20 22 25 rings
6 7 8 17 19 24 26 rings

> <PUBCHEM_HEAVY_ATOM_COUNT>
29

> <PUBCHEM_ATOM_DEF_STEREO_COUNT>
0

> <PUBCHEM_ATOM_UDEF_STEREO_COUNT>
0

> <PUBCHEM_BOND_DEF_STEREO_COUNT>
0

> <PUBCHEM_BOND_UDEF_STEREO_COUNT>
0

> <PUBCHEM_ISOTOPIC_ATOM_COUNT>
0

> <PUBCHEM_COMPONENT_COUNT>
1

> <PUBCHEM_CACTVS_TAUTO_COUNT>
2

> <PUBCHEM_CONFORMER_ID>
036D76F800000007

> <PUBCHEM_MMFF94_ENERGY>
83.7476

> <PUBCHEM_FEATURE_SELFOVERLAP>
35.659

> <PUBCHEM_SHAPE_FINGERPRINT>
10 15 12391510897238236047
10280341 67 11459584668086695350
10319926 262 15339121268831859085
10622 236 17900532386042735754
10670039 82 13767919083819947238
11409948 35 18261390006630222667
11505856 67 9796541440483625936
11991303 11 17828478072922699757
12166972 35 18260833687293527172
12422481 6 16343705434689562613
12616971 3 17489586805394000341
13533116 47 18341048609516447184
13782708 43 18335977640804373207
13955234 65 18197492042315528280
14251764 30 18187365450102543093
14347332 77 18410291380809955429
15019793 15 18122062280301123171
15163728 17 11530774639553177488
15183329 4 17676486125030398021
15326921 28 16700353906276350201
15348495 7 13542458786936540180
15352257 5 18114185271925454267
15475509 35 18413665816729326496
155225 6 10663516241578597850
17134984 74 18113058251348489618
18393751 57 10663826286999053221
1979834 28 16559039263903766284
20567600 234 9583519824092345937
20567600 247 18333450928570933618
208703 8 18340205177261947470
21033650 10 16153982440264720205
21344244 181 17894354405925258795
21792934 111 15338846357176905515
22061861 79 17968090923858220541
2303208 19 18114739430217645869
23516275 100 14708065443324956158
23522609 53 18053137057435918825
23559900 14 18187645859679541529
23569943 247 18410011001646206283
2748736 6 7997971275633053047
3004659 81 17274550939451482765
312425 54 15195561299552079526
328310 630 11314298435427486479
3472631 163 10953749893418260984
34797466 226 16660928880256664709
3680242 22 17917991715272427469
3729539 64 18260263023579147475
4073 2 17911515712012697769
4098825 35 17821729386709907173
437795 160 14620790532161823863
439807 62 18333453123251872383
46194498 28 17168426064353492132
465052 167 18342741810573876756
484989 97 18041571320561504186
5104073 3 16701456926549072545
513202 73 18411139122193311725
513532 50 16805597097454917316
5364581 5 12894773892395945475
6034566 193 8286188479262479993
6058803 2 16770689939909493581
6697151 62 17987497300211205185
6712543 237 15338828721324173182
8863177 126 18339081622079986475

> <PUBCHEM_SHAPE_MULTIPOLES>
543.32
20.91
3.11
1.76
15.85
0.33
-0.37
19.2
-0.92
-4.44
1.78
0.7
0.03
-1.03

> <PUBCHEM_SHAPE_SELFOVERLAP>
1209.784

> <PUBCHEM_SHAPE_VOLUME>
289.9

> <PUBCHEM_COORDINATE_TYPE>
2
5
10

$$$$
