14802486
  -OEChem-10062121593D

 41 42  0     0  0  0  0  0  0999 V2000
   -3.2013    0.5997    0.3180 S   0  0  0  0  0  0  0  0  0  0  0  0
   -4.1754   -0.2372   -0.3564 O   0  0  0  0  0  0  0  0  0  0  0  0
   -3.5909    1.3890    1.4707 O   0  0  0  0  0  0  0  0  0  0  0  0
    1.6130    3.0752    0.4773 O   0  0  0  0  0  0  0  0  0  0  0  0
    5.4896   -0.1463    0.9276 O   0  0  0  0  0  0  0  0  0  0  0  0
    4.2571   -1.0107   -0.7731 O   0  0  0  0  0  0  0  0  0  0  0  0
   -2.4501    1.6177   -0.8166 N   0  0  0  0  0  0  0  0  0  0  0  0
    0.3499    2.2391   -1.2851 N   0  0  0  0  0  0  0  0  0  0  0  0
   -0.0944   -3.3369   -1.6606 N   0  0  0  0  0  0  0  0  0  0  0  0
   -1.8583   -0.4300    0.8285 C   0  0  0  0  0  0  0  0  0  0  0  0
   -1.8406    2.8923   -0.3750 C   0  0  0  0  0  0  0  0  0  0  0  0
   -1.2888   -1.3889   -0.0157 C   0  0  0  0  0  0  0  0  0  0  0  0
   -0.6770    3.2558   -1.2821 C   0  0  0  0  0  0  0  0  0  0  0  0
   -0.2201   -2.1706    0.4697 C   0  0  0  0  0  0  0  0  0  0  0  0
   -1.3915   -0.2384    2.1249 C   0  0  0  0  0  0  0  0  0  0  0  0
    0.2498   -1.9756    1.7791 C   0  0  0  0  0  0  0  0  0  0  0  0
   -1.7421   -1.5984   -1.3231 C   0  0  0  0  0  0  0  0  0  0  0  0
   -0.3358   -1.0126    2.6006 C   0  0  0  0  0  0  0  0  0  0  0  0
    2.3361    1.0521   -0.6349 C   0  0  0  0  0  0  0  0  0  0  0  0
    1.4159    2.2362   -0.3974 C   0  0  0  0  0  0  0  0  0  0  0  0
    0.3288   -3.1196   -0.3951 C   0  0  0  0  0  0  0  0  0  0  0  0
    3.5167    1.0282    0.3305 C   0  0  0  0  0  0  0  0  0  0  0  0
   -1.1189   -2.5702   -2.0912 C   0  0  0  0  0  0  0  0  0  0  0  0
    4.4282   -0.1501    0.0792 C   0  0  0  0  0  0  0  0  0  0  0  0
   -2.6029    3.6768   -0.4132 H   0  0  0  0  0  0  0  0  0  0  0  0
   -1.4846    2.8007    0.6567 H   0  0  0  0  0  0  0  0  0  0  0  0
   -2.7550    1.5775   -1.7970 H   0  0  0  0  0  0  0  0  0  0  0  0
   -1.0167    3.3667   -2.3175 H   0  0  0  0  0  0  0  0  0  0  0  0
   -0.2390    4.2077   -0.9634 H   0  0  0  0  0  0  0  0  0  0  0  0
   -1.8141    0.5022    2.7963 H   0  0  0  0  0  0  0  0  0  0  0  0
    0.2685    1.4881   -1.9645 H   0  0  0  0  0  0  0  0  0  0  0  0
    1.0742   -2.5703    2.1658 H   0  0  0  0  0  0  0  0  0  0  0  0
   -2.5291   -1.0314   -1.8004 H   0  0  0  0  0  0  0  0  0  0  0  0
    0.0337   -0.8656    3.6114 H   0  0  0  0  0  0  0  0  0  0  0  0
    1.7486    0.1322   -0.5342 H   0  0  0  0  0  0  0  0  0  0  0  0
    2.6975    1.0990   -1.6695 H   0  0  0  0  0  0  0  0  0  0  0  0
    1.1546   -3.7538   -0.0844 H   0  0  0  0  0  0  0  0  0  0  0  0
    3.1530    0.9655    1.3625 H   0  0  0  0  0  0  0  0  0  0  0  0
    4.1053    1.9462    0.2218 H   0  0  0  0  0  0  0  0  0  0  0  0
   -1.4356   -2.7566   -3.1123 H   0  0  0  0  0  0  0  0  0  0  0  0
    6.0863   -0.9086    0.7695 H   0  0  0  0  0  0  0  0  0  0  0  0
  1  2  2  0  0  0  0
  1  3  2  0  0  0  0
  1  7  1  0  0  0  0
  1 10  1  0  0  0  0
  4 20  2  0  0  0  0
  5 24  1  0  0  0  0
  5 41  1  0  0  0  0
  6 24  2  0  0  0  0
  7 11  1  0  0  0  0
  7 27  1  0  0  0  0
  8 13  1  0  0  0  0
  8 20  1  0  0  0  0
  8 31  1  0  0  0  0
  9 21  2  0  0  0  0
  9 23  1  0  0  0  0
 10 12  1  0  0  0  0
 10 15  2  0  0  0  0
 11 13  1  0  0  0  0
 11 25  1  0  0  0  0
 11 26  1  0  0  0  0
 12 14  2  0  0  0  0
 12 17  1  0  0  0  0
 13 28  1  0  0  0  0
 13 29  1  0  0  0  0
 14 16  1  0  0  0  0
 14 21  1  0  0  0  0
 15 18  1  0  0  0  0
 15 30  1  0  0  0  0
 16 18  2  0  0  0  0
 16 32  1  0  0  0  0
 17 23  2  0  0  0  0
 17 33  1  0  0  0  0
 18 34  1  0  0  0  0
 19 20  1  0  0  0  0
 19 22  1  0  0  0  0
 19 35  1  0  0  0  0
 19 36  1  0  0  0  0
 21 37  1  0  0  0  0
 22 24  1  0  0  0  0
 22 38  1  0  0  0  0
 22 39  1  0  0  0  0
 23 40  1  0  0  0  0
M  END
> <PUBCHEM_COMPOUND_CID>
14802486

> <PUBCHEM_CONFORMER_RMSD>
1

> <PUBCHEM_CONFORMER_DIVERSEORDER>
1
157
142
87
105
144
97
2
110
18
148
53
163
90
169
182
174
154
14
121
58
155
108
17
131
141
139
46
103
57
21
127
185
48
176
100
151
67
118
42
109
59
178
31
15
3
146
172
106
35
149
99
63
5
125
120
171
28
175
23
26
117
19
43
104
138
51
152
158
36
94
183
124
102
83
25
66
133
82
13
12
164
159
86
168
47
160
10
137
34
39
38
71
173
92
27
56
6
126
69
115
147
55
44
143
123
112
75
50
111
84
116
150
76
170
181
135
37
177
179
95
113
60
7
134
30
136
4
88
153
9
79
114
8
85
132
65
128
73
45
74
78
119
41
184
101
129
22
33
16
61
98
77
11
145
91
162
49
80
81
180
89
52
32
24
70
20
96
140
122
166
72
29
64
40
161
93
68
130
62
107
165
54
156
167

> <PUBCHEM_MMFF94_PARTIAL_CHARGES>
31
1 1.45
10 -0.01
11 0.36
13 0.3
15 -0.15
16 -0.15
17 -0.15
18 -0.15
19 0.06
2 -0.65
20 0.57
21 0.16
22 0.06
23 0.16
24 0.66
27 0.42
3 -0.65
30 0.15
31 0.37
32 0.15
33 0.15
34 0.15
37 0.15
4 -0.57
40 0.15
41 0.5
5 -0.65
6 -0.57
7 -0.91
8 -0.73
9 -0.62

> <PUBCHEM_EFFECTIVE_ROTOR_COUNT>
9

> <PUBCHEM_PHARMACOPHORE_FEATURES>
11
1 2 acceptor
1 3 acceptor
1 4 acceptor
1 5 acceptor
1 6 acceptor
1 7 donor
1 8 donor
1 9 acceptor
3 5 6 24 anion
6 10 12 14 15 16 18 rings
6 9 12 14 17 21 23 rings

> <PUBCHEM_HEAVY_ATOM_COUNT>
24

> <PUBCHEM_ATOM_DEF_STEREO_COUNT>
0

> <PUBCHEM_ATOM_UDEF_STEREO_COUNT>
0

> <PUBCHEM_BOND_DEF_STEREO_COUNT>
0

> <PUBCHEM_BOND_UDEF_STEREO_COUNT>
0

> <PUBCHEM_ISOTOPIC_ATOM_COUNT>
0

> <PUBCHEM_COMPONENT_COUNT>
1

> <PUBCHEM_CACTVS_TAUTO_COUNT>
2

> <PUBCHEM_CONFORMER_ID>
00E1DE3600000001

> <PUBCHEM_MMFF94_ENERGY>
36.9522

> <PUBCHEM_FEATURE_SELFOVERLAP>
55.929

> <PUBCHEM_SHAPE_FINGERPRINT>
11221954 11 17685495351409430428
11370993 70 17632297865428461062
12035759 4 18195782220334848607
12156800 1 17333588035182861150
12422481 6 18121798131057986913
12539773 59 17120896530115569850
128993 33 9220470992900397572
14251751 93 18335975372639725356
19777482 4 17909266132617658463
19930381 70 18198908002547821902
20905425 154 17900259706515241229
23419403 2 17329774886145749955
23728640 28 18340491174311297294
3797600 57 15087539453369511657
57527585 103 17099734204219963698
59755656 215 18188768337025106765
6287921 2 16904379132637107568
9862522 239 18264473002083055028

> <PUBCHEM_SHAPE_MULTIPOLES>
453.47
6.48
4.24
1.99
8.33
0.86
0.59
1.39
0.85
-0.69
-1.96
-0.85
-1.16
-0.35

> <PUBCHEM_SHAPE_SELFOVERLAP>
939.083

> <PUBCHEM_SHAPE_VOLUME>
258

> <PUBCHEM_COORDINATE_TYPE>
2
5
10

$$$$
