4714238
  -OEChem-10062121533D

 42 44  0     1  0  0  0  0  0999 V2000
   -2.1792   -3.7132    0.2951 Cl  0  0  0  0  0  0  0  0  0  0  0  0
   -4.3857   -1.7444   -0.0571 O   0  0  0  0  0  0  0  0  0  0  0  0
    1.6823   -0.2459   -0.3830 N   0  0  1  0  0  0  0  0  0  0  0  0
   -4.1348    0.9700   -0.1473 N   0  0  0  0  0  0  0  0  0  0  0  0
    3.0382    0.2859   -0.2618 C   0  0  0  0  0  0  0  0  0  0  0  0
    3.4808    0.2544    1.2053 C   0  0  0  0  0  0  0  0  0  0  0  0
    3.9954   -0.5216   -1.1454 C   0  0  0  0  0  0  0  0  0  0  0  0
    4.9236    0.7320    1.3617 C   0  0  0  0  0  0  0  0  0  0  0  0
    5.4373   -0.0424   -0.9862 C   0  0  0  0  0  0  0  0  0  0  0  0
    5.8786   -0.0615    0.4745 C   0  0  0  0  0  0  0  0  0  0  0  0
    0.7566    0.5168    0.4544 C   0  0  0  0  0  0  0  0  0  0  0  0
    1.2459   -0.2221   -1.7789 C   0  0  0  0  0  0  0  0  0  0  0  0
   -0.6254   -0.0449    0.3146 C   0  0  0  0  0  0  0  0  0  0  0  0
   -1.7503    0.7785    0.1439 C   0  0  0  0  0  0  0  0  0  0  0  0
   -0.7640   -1.4286    0.3607 C   0  0  0  0  0  0  0  0  0  0  0  0
   -3.0353    0.2105    0.0173 C   0  0  0  0  0  0  0  0  0  0  0  0
   -2.0265   -1.9949    0.2368 C   0  0  0  0  0  0  0  0  0  0  0  0
   -1.6384    2.1746    0.0941 C   0  0  0  0  0  0  0  0  0  0  0  0
   -3.1459   -1.1765    0.0671 C   0  0  0  0  0  0  0  0  0  0  0  0
   -2.7696    2.9597   -0.0755 C   0  0  0  0  0  0  0  0  0  0  0  0
   -3.9836    2.3135   -0.1901 C   0  0  0  0  0  0  0  0  0  0  0  0
    3.0646    1.3319   -0.6020 H   0  0  0  0  0  0  0  0  0  0  0  0
    3.3889   -0.7606    1.6135 H   0  0  0  0  0  0  0  0  0  0  0  0
    2.8818    0.9194    1.8350 H   0  0  0  0  0  0  0  0  0  0  0  0
    3.7588   -0.4206   -2.2096 H   0  0  0  0  0  0  0  0  0  0  0  0
    3.9402   -1.5893   -0.8954 H   0  0  0  0  0  0  0  0  0  0  0  0
    4.9867    1.7965    1.1041 H   0  0  0  0  0  0  0  0  0  0  0  0
    5.2319    0.6384    2.4093 H   0  0  0  0  0  0  0  0  0  0  0  0
    6.1048   -0.6771   -1.5801 H   0  0  0  0  0  0  0  0  0  0  0  0
    5.5300    0.9767   -1.3817 H   0  0  0  0  0  0  0  0  0  0  0  0
    6.8902    0.3511    0.5597 H   0  0  0  0  0  0  0  0  0  0  0  0
    5.9258   -1.0993    0.8271 H   0  0  0  0  0  0  0  0  0  0  0  0
    0.8466    1.5727    0.1977 H   0  0  0  0  0  0  0  0  0  0  0  0
    0.9799    0.4164    1.5216 H   0  0  0  0  0  0  0  0  0  0  0  0
    1.3852    0.7651   -2.2366 H   0  0  0  0  0  0  0  0  0  0  0  0
    0.1996   -0.4990   -1.9391 H   0  0  0  0  0  0  0  0  0  0  0  0
    1.7854   -0.9647   -2.3758 H   0  0  0  0  0  0  0  0  0  0  0  0
    0.0963   -2.0755    0.5163 H   0  0  0  0  0  0  0  0  0  0  0  0
   -0.7024    2.7100    0.1959 H   0  0  0  0  0  0  0  0  0  0  0  0
   -2.7028    4.0407   -0.1129 H   0  0  0  0  0  0  0  0  0  0  0  0
   -4.9023    2.8755   -0.3232 H   0  0  0  0  0  0  0  0  0  0  0  0
   -4.2881   -2.7108   -0.0022 H   0  0  0  0  0  0  0  0  0  0  0  0
  1 17  1  0  0  0  0
  2 19  1  0  0  0  0
  2 42  1  0  0  0  0
  3  5  1  0  0  0  0
  3 11  1  0  0  0  0
  3 12  1  0  0  0  0
  4 16  1  0  0  0  0
  4 21  2  0  0  0  0
  5  6  1  0  0  0  0
  5  7  1  0  0  0  0
  5 22  1  0  0  0  0
  6  8  1  0  0  0  0
  6 23  1  0  0  0  0
  6 24  1  0  0  0  0
  7  9  1  0  0  0  0
  7 25  1  0  0  0  0
  7 26  1  0  0  0  0
  8 10  1  0  0  0  0
  8 27  1  0  0  0  0
  8 28  1  0  0  0  0
  9 10  1  0  0  0  0
  9 29  1  0  0  0  0
  9 30  1  0  0  0  0
 10 31  1  0  0  0  0
 10 32  1  0  0  0  0
 11 13  1  0  0  0  0
 11 33  1  0  0  0  0
 11 34  1  0  0  0  0
 12 35  1  0  0  0  0
 12 36  1  0  0  0  0
 12 37  1  0  0  0  0
 13 14  1  0  0  0  0
 13 15  2  0  0  0  0
 14 16  2  0  0  0  0
 14 18  1  0  0  0  0
 15 17  1  0  0  0  0
 15 38  1  0  0  0  0
 16 19  1  0  0  0  0
 17 19  2  0  0  0  0
 18 20  2  0  0  0  0
 18 39  1  0  0  0  0
 20 21  1  0  0  0  0
 20 40  1  0  0  0  0
 21 41  1  0  0  0  0
M  END
> <PUBCHEM_COMPOUND_CID>
4714238

> <PUBCHEM_CONFORMER_RMSD>
0.6

> <PUBCHEM_CONFORMER_DIVERSEORDER>
2
21
17
12
13
1
23
16
9
6
5
24
3
18
15
4
8
26
7
11
22
20
10
19
14
25

> <PUBCHEM_MMFF94_PARTIAL_CHARGES>
20
1 -0.18
11 0.41
12 0.27
13 -0.14
15 -0.15
16 0.31
17 0.18
18 -0.15
19 0.08
2 -0.53
20 -0.15
21 0.16
3 -0.81
38 0.15
39 0.15
4 -0.62
40 0.15
41 0.15
42 0.45
5 0.27

> <PUBCHEM_EFFECTIVE_ROTOR_COUNT>
4.2

> <PUBCHEM_PHARMACOPHORE_FEATURES>
6
1 2 donor
1 3 cation
1 4 acceptor
6 13 14 15 16 17 19 rings
6 4 14 16 18 20 21 rings
6 5 6 7 8 9 10 rings

> <PUBCHEM_HEAVY_ATOM_COUNT>
21

> <PUBCHEM_ATOM_DEF_STEREO_COUNT>
0

> <PUBCHEM_ATOM_UDEF_STEREO_COUNT>
0

> <PUBCHEM_BOND_DEF_STEREO_COUNT>
0

> <PUBCHEM_BOND_UDEF_STEREO_COUNT>
0

> <PUBCHEM_ISOTOPIC_ATOM_COUNT>
0

> <PUBCHEM_COMPONENT_COUNT>
1

> <PUBCHEM_CACTVS_TAUTO_COUNT>
3

> <PUBCHEM_CONFORMER_ID>
0047EEFE00000002

> <PUBCHEM_MMFF94_ENERGY>
60.121

> <PUBCHEM_FEATURE_SELFOVERLAP>
30.477

> <PUBCHEM_SHAPE_FINGERPRINT>
10319926 262 18268972281659031530
10411042 1 17977385263627263435
10646746 165 18412824660243049456
11045977 3 18201716258799162816
11315181 36 17967813881820580372
11796584 16 18339929213176839382
12107183 9 17829036620855181338
12173636 292 18337667491244362949
12236239 1 17458346333968426472
12390115 104 18127982905982856225
12403259 415 17989770003635234824
12500047 106 18410856529960270358
12596602 18 17095533902372429120
12616971 3 16877661258586978654
12788726 201 17825685596728869770
13140716 1 18121224439908264139
13167823 11 18187081750501539130
13403585 85 18340198683155104768
13583140 156 18060697299851729766
13760787 5 16081090377146311860
13911987 19 16702300196075538384
14508225 48 18195515107897385837
14573314 32 18341897364226904382
14844126 61 18263360450766426635
15042514 8 18263932201645731851
15099037 37 18342455979935831677
15375358 24 18131632262109808580
15961568 22 18191300688466690180
16087824 20 18410852128869259237
16752209 62 18335416885194397483
17539 30 18268985548428315119
17844677 252 18410859893257481312
17980427 23 18333736839975016388
18915476 22 17060066882442893222
19489759 90 18411697677772196708
20510252 161 18342459227458641433
20511986 3 17604416479709902420
20645477 56 18411141294660565569
20645477 70 16773519876516707700
21065198 57 18412260649606565106
21065201 7 18411982464543440554
21792961 116 17775014479958065796
22122407 14 15647347286074059021
2297311 6 18340496641656874630
23175994 123 17275105041513435233
23402539 116 18410287012785582461
23557571 272 18271536354731543428
23559900 14 18342745062127967726
23598288 3 17969805127211385571
341906 21 18409444770136816352
34797466 226 18057904592046840228
3545911 37 18341615871764596516
4214541 1 18410292497780630960
469060 322 18263105300255559969
5283173 99 18271243829083931784
559249 180 18261952947513596586
573450 72 18187357727835455018
602551 16 18409448098767872338
67856867 119 18043815501488178524
9709674 26 18342745113172034334
9862522 239 17460021890873579773
9981440 41 18190183395462117379

> <PUBCHEM_SHAPE_MULTIPOLES>
418.21
11.19
2.88
1.09
14.01
1.12
0.18
-1.51
-0.36
-5.53
-0.24
1.46
0
0.73

> <PUBCHEM_SHAPE_SELFOVERLAP>
889.805

> <PUBCHEM_SHAPE_VOLUME>
235.5

> <PUBCHEM_COORDINATE_TYPE>
2
5
10

$$$$
