18451372
  -OEChem-10052120443D

 42 45  0     0  0  0  0  0  0999 V2000
   -5.9142   -1.4915   -1.6245 S   0  0  0  0  0  0  0  0  0  0  0  0
    7.0434    1.7757   -2.0370 F   0  0  0  0  0  0  0  0  0  0  0  0
    2.7275    0.3677   -0.8571 O   0  0  0  0  0  0  0  0  0  0  0  0
    1.7321   -0.9345    0.8170 N   0  0  0  0  0  0  0  0  0  0  0  0
   -5.6823    2.0836    1.0637 N   0  0  0  0  0  0  0  0  0  0  0  0
   -3.3760    1.6567    1.3592 N   0  0  0  0  0  0  0  0  0  0  0  0
    4.0213   -0.6265    0.8182 N   0  0  0  0  0  0  0  0  0  0  0  0
   -3.7349   -0.7509   -0.5043 C   0  0  0  0  0  0  0  0  0  0  0  0
   -4.7221    0.1955   -0.0700 C   0  0  0  0  0  0  0  0  0  0  0  0
   -2.3337   -0.7979   -0.1656 C   0  0  0  0  0  0  0  0  0  0  0  0
   -5.9757   -0.0956   -0.6151 C   0  0  0  0  0  0  0  0  0  0  0  0
   -4.2469   -1.7107   -1.3447 C   0  0  0  0  0  0  0  0  0  0  0  0
   -4.6117    1.3094    0.7775 C   0  0  0  0  0  0  0  0  0  0  0  0
   -1.4025   -0.1221   -0.9542 C   0  0  0  0  0  0  0  0  0  0  0  0
   -1.9097   -1.5191    0.9505 C   0  0  0  0  0  0  0  0  0  0  0  0
    0.3767   -0.8889    0.4894 C   0  0  0  0  0  0  0  0  0  0  0  0
   -0.0474   -0.1675   -0.6265 C   0  0  0  0  0  0  0  0  0  0  0  0
   -0.5545   -1.5648    1.2781 C   0  0  0  0  0  0  0  0  0  0  0  0
   -7.0946    0.6957   -0.3293 C   0  0  0  0  0  0  0  0  0  0  0  0
   -6.8724    1.7677    0.5172 C   0  0  0  0  0  0  0  0  0  0  0  0
    2.8230   -0.3234    0.1520 C   0  0  0  0  0  0  0  0  0  0  0  0
    5.3328   -0.2150    0.4821 C   0  0  0  0  0  0  0  0  0  0  0  0
    5.5457    0.5937   -0.6343 C   0  0  0  0  0  0  0  0  0  0  0  0
    6.4129   -0.6184    1.2673 C   0  0  0  0  0  0  0  0  0  0  0  0
    6.8387    0.9990   -0.9653 C   0  0  0  0  0  0  0  0  0  0  0  0
    7.7058   -0.2133    0.9360 C   0  0  0  0  0  0  0  0  0  0  0  0
    7.9187    0.5954   -0.1803 C   0  0  0  0  0  0  0  0  0  0  0  0
   -3.7287   -2.5366   -1.8139 H   0  0  0  0  0  0  0  0  0  0  0  0
   -1.7177    0.4456   -1.8267 H   0  0  0  0  0  0  0  0  0  0  0  0
   -2.6228   -2.0504    1.5765 H   0  0  0  0  0  0  0  0  0  0  0  0
    0.6093    0.3818   -1.2857 H   0  0  0  0  0  0  0  0  0  0  0  0
   -0.2383   -2.1305    2.1509 H   0  0  0  0  0  0  0  0  0  0  0  0
   -8.0743    0.4863   -0.7420 H   0  0  0  0  0  0  0  0  0  0  0  0
   -7.6894    2.4296    0.7878 H   0  0  0  0  0  0  0  0  0  0  0  0
    1.9636   -1.4800    1.6435 H   0  0  0  0  0  0  0  0  0  0  0  0
   -2.5268    1.1415    1.2035 H   0  0  0  0  0  0  0  0  0  0  0  0
   -3.3506    2.4689    1.9623 H   0  0  0  0  0  0  0  0  0  0  0  0
    3.9480   -1.2138    1.6451 H   0  0  0  0  0  0  0  0  0  0  0  0
    4.7644    0.9479   -1.2911 H   0  0  0  0  0  0  0  0  0  0  0  0
    6.2608   -1.2487    2.1398 H   0  0  0  0  0  0  0  0  0  0  0  0
    8.5468   -0.5275    1.5472 H   0  0  0  0  0  0  0  0  0  0  0  0
    8.9252    0.9111   -0.4384 H   0  0  0  0  0  0  0  0  0  0  0  0
  1 11  1  0  0  0  0
  1 12  1  0  0  0  0
  2 25  1  0  0  0  0
  3 21  2  0  0  0  0
  4 16  1  0  0  0  0
  4 21  1  0  0  0  0
  4 35  1  0  0  0  0
  5 13  2  0  0  0  0
  5 20  1  0  0  0  0
  6 13  1  0  0  0  0
  6 36  1  0  0  0  0
  6 37  1  0  0  0  0
  7 21  1  0  0  0  0
  7 22  1  0  0  0  0
  7 38  1  0  0  0  0
  8  9  1  0  0  0  0
  8 10  1  0  0  0  0
  8 12  2  0  0  0  0
  9 11  2  0  0  0  0
  9 13  1  0  0  0  0
 10 14  2  0  0  0  0
 10 15  1  0  0  0  0
 11 19  1  0  0  0  0
 12 28  1  0  0  0  0
 14 17  1  0  0  0  0
 14 29  1  0  0  0  0
 15 18  2  0  0  0  0
 15 30  1  0  0  0  0
 16 17  2  0  0  0  0
 16 18  1  0  0  0  0
 17 31  1  0  0  0  0
 18 32  1  0  0  0  0
 19 20  2  0  0  0  0
 19 33  1  0  0  0  0
 20 34  1  0  0  0  0
 22 23  2  0  0  0  0
 22 24  1  0  0  0  0
 23 25  1  0  0  0  0
 23 39  1  0  0  0  0
 24 26  2  0  0  0  0
 24 40  1  0  0  0  0
 25 27  2  0  0  0  0
 26 27  1  0  0  0  0
 26 41  1  0  0  0  0
 27 42  1  0  0  0  0
M  END
> <PUBCHEM_COMPOUND_CID>
18451372

> <PUBCHEM_CONFORMER_RMSD>
0.8

> <PUBCHEM_CONFORMER_DIVERSEORDER>
1
13
27
19
7
12
20
11
28
24
14
22
15
18
4
5
17
25
8
3
16
9
21
10
26
6
23
2

> <PUBCHEM_MMFF94_PARTIAL_CHARGES>
41
1 -0.08
10 0.05
11 0.04
12 -0.11
13 0.41
14 -0.15
15 -0.15
16 0.12
17 -0.15
18 -0.15
19 -0.15
2 -0.19
20 0.16
21 0.69
22 0.12
23 -0.15
24 -0.15
25 0.19
26 -0.15
27 -0.15
28 0.15
29 0.15
3 -0.57
30 0.15
31 0.15
32 0.15
33 0.15
34 0.15
35 0.37
36 0.4
37 0.4
38 0.37
39 0.15
4 -0.55
40 0.15
41 0.15
42 0.15
5 -0.62
6 -0.9
7 -0.55
8 -0.05

> <PUBCHEM_EFFECTIVE_ROTOR_COUNT>
5

> <PUBCHEM_PHARMACOPHORE_FEATURES>
9
1 3 acceptor
1 4 donor
1 6 donor
1 7 donor
3 5 6 13 cation
5 1 8 9 11 12 rings
6 10 14 15 16 17 18 rings
6 22 23 24 25 26 27 rings
6 5 9 11 13 19 20 rings

> <PUBCHEM_HEAVY_ATOM_COUNT>
27

> <PUBCHEM_ATOM_DEF_STEREO_COUNT>
0

> <PUBCHEM_ATOM_UDEF_STEREO_COUNT>
0

> <PUBCHEM_BOND_DEF_STEREO_COUNT>
0

> <PUBCHEM_BOND_UDEF_STEREO_COUNT>
0

> <PUBCHEM_ISOTOPIC_ATOM_COUNT>
0

> <PUBCHEM_COMPONENT_COUNT>
1

> <PUBCHEM_CACTVS_TAUTO_COUNT>
6

> <PUBCHEM_CONFORMER_ID>
01198BAC00000001

> <PUBCHEM_MMFF94_ENERGY>
86.1921

> <PUBCHEM_FEATURE_SELFOVERLAP>
45.785

> <PUBCHEM_SHAPE_FINGERPRINT>
10 15 15213021570392770182
10076449 9 17060337449284151443
10087517 78 18411981326087359309
10299344 5 18408037416611886070
10391435 84 14045444675336610326
10411042 1 17699552943966009879
10638233 991 18335421309343223076
106641 1 17385730201599314267
10730089 173 18131348597016359689
10906281 52 18260559921967988502
11315181 36 18334573573262058255
11991303 11 15482098483626803860
12082328 90 18202560696134318087
12091667 2 18273493494520377799
12236239 1 18409162187116552619
13668630 136 14261346968630397613
13782708 43 11095892553539444038
13914758 101 18202846539419523658
14251764 18 18333730234214710791
14849402 71 18041566943588948229
14856354 85 18130222765913877535
150020 25 16487254361534441640
15183329 4 18131072636545561432
15198563 99 15482683337902593312
15276724 80 18113333111912294588
15348495 7 14562824291012314884
15419008 47 16486968492721681632
15419008 91 16701720714634252904
15461852 350 18131070467159958575
1577012 14 18408882923478150850
15849732 13 16487251093096042572
16989713 51 16987704870409597527
195137 175 18335704961978908220
20281389 69 17240197738323621198
21150785 3 15769772451027960896
21756936 100 18408324376789491203
21792961 116 16343987996255951942
22224240 67 16805042913112704283
23081809 10 18409722967911165866
23198884 109 18342175574401040730
23522609 53 18334872610107289620
23559900 14 17896314899518639044
23576562 1 18055914548930594188
249057 3 17703784856049823933
3178227 256 16153430532476576264
328310 630 17967820482810768420
394071 54 17530685403479002294
397830 11 14274033172588917940
4073 2 18410295813137479882
4339292 15 16701160024319445791
44555599 121 18333735736627532052
445580 204 18413109442064996921
445580 37 18060143132673788585
44880568 143 17203894062976344384
5104073 3 17313948649225243240
5265222 85 17488172880205461310
5364581 5 14274320170450427582
54039377 194 10519686918542462965
5758199 1 18260546714532006098
59682541 35 16081376258585648513
5969126 39 12751242484638206515
59755656 215 16415482640693640062
59755656 520 17967529086565683739
6328613 192 18186805820211647252

> <PUBCHEM_SHAPE_MULTIPOLES>
526.43
24.98
1.71
1.42
30.08
0.39
-0.22
8.74
-4.02
-3.32
0.1
1.11
-0.04
-3

> <PUBCHEM_SHAPE_SELFOVERLAP>
1157.358

> <PUBCHEM_SHAPE_VOLUME>
287.1

> <PUBCHEM_COORDINATE_TYPE>
2
5
10

$$$$
