24905237
  -OEChem-10052115153D

 35 37  0     0  0  0  0  0  0999 V2000
    3.8048    0.2709   -2.0955 F   0  0  0  0  0  0  0  0  0  0  0  0
   -2.4428    1.0267    0.0108 N   0  0  0  0  0  0  0  0  0  0  0  0
   -1.1523    1.4040    0.0752 N   0  0  0  0  0  0  0  0  0  0  0  0
   -3.7794   -0.9902   -0.0790 N   0  0  0  0  0  0  0  0  0  0  0  0
   -2.3903   -2.9951   -0.0440 N   0  0  0  0  0  0  0  0  0  0  0  0
   -0.0074   -2.9116    0.0671 N   0  0  0  0  0  0  0  0  0  0  0  0
    6.3242    0.2333    0.4077 N   0  0  0  0  0  0  0  0  0  0  0  0
   -3.4778    2.0327   -0.0221 C   0  0  0  0  0  0  0  0  0  0  0  0
   -2.6147   -0.3254   -0.0164 C   0  0  0  0  0  0  0  0  0  0  0  0
   -1.3448   -0.8730    0.0339 C   0  0  0  0  0  0  0  0  0  0  0  0
   -0.4888    0.2427    0.0889 C   0  0  0  0  0  0  0  0  0  0  0  0
   -3.3639    2.9171   -1.2663 C   0  0  0  0  0  0  0  0  0  0  0  0
   -3.4786    2.8814    1.2518 C   0  0  0  0  0  0  0  0  0  0  0  0
    0.9509    0.2412    0.1544 C   0  0  0  0  0  0  0  0  0  0  0  0
   -1.2535   -2.2608    0.0183 C   0  0  0  0  0  0  0  0  0  0  0  0
    1.7025    0.2574   -1.0205 C   0  0  0  0  0  0  0  0  0  0  0  0
    1.5927    0.2232    1.3928 C   0  0  0  0  0  0  0  0  0  0  0  0
   -3.5658   -2.3237   -0.0883 C   0  0  0  0  0  0  0  0  0  0  0  0
    3.0960    0.2555   -0.9571 C   0  0  0  0  0  0  0  0  0  0  0  0
    2.9861    0.2212    1.4561 C   0  0  0  0  0  0  0  0  0  0  0  0
    3.7378    0.2373    0.2812 C   0  0  0  0  0  0  0  0  0  0  0  0
    5.1651    0.2352    0.3510 C   0  0  0  0  0  0  0  0  0  0  0  0
   -4.4404    1.5097   -0.0733 H   0  0  0  0  0  0  0  0  0  0  0  0
   -4.2038    3.6178   -1.3205 H   0  0  0  0  0  0  0  0  0  0  0  0
   -3.3717    2.3097   -2.1782 H   0  0  0  0  0  0  0  0  0  0  0  0
   -2.4375    3.5022   -1.2644 H   0  0  0  0  0  0  0  0  0  0  0  0
   -3.5684    2.2485    2.1416 H   0  0  0  0  0  0  0  0  0  0  0  0
   -4.3210    3.5813    1.2492 H   0  0  0  0  0  0  0  0  0  0  0  0
   -2.5567    3.4652    1.3505 H   0  0  0  0  0  0  0  0  0  0  0  0
    1.2177    0.2709   -1.9937 H   0  0  0  0  0  0  0  0  0  0  0  0
    1.0211    0.2098    2.3178 H   0  0  0  0  0  0  0  0  0  0  0  0
   -4.4558   -2.9419   -0.1375 H   0  0  0  0  0  0  0  0  0  0  0  0
    3.4717    0.2068    2.4290 H   0  0  0  0  0  0  0  0  0  0  0  0
    0.8562   -2.3913    0.1137 H   0  0  0  0  0  0  0  0  0  0  0  0
    0.0139   -3.9225    0.0535 H   0  0  0  0  0  0  0  0  0  0  0  0
  1 19  1  0  0  0  0
  2  3  1  0  0  0  0
  2  8  1  0  0  0  0
  2  9  1  0  0  0  0
  3 11  2  0  0  0  0
  4  9  2  0  0  0  0
  4 18  1  0  0  0  0
  5 15  1  0  0  0  0
  5 18  2  0  0  0  0
  6 15  1  0  0  0  0
  6 34  1  0  0  0  0
  6 35  1  0  0  0  0
  7 22  3  0  0  0  0
  8 12  1  0  0  0  0
  8 13  1  0  0  0  0
  8 23  1  0  0  0  0
  9 10  1  0  0  0  0
 10 11  1  0  0  0  0
 10 15  2  0  0  0  0
 11 14  1  0  0  0  0
 12 24  1  0  0  0  0
 12 25  1  0  0  0  0
 12 26  1  0  0  0  0
 13 27  1  0  0  0  0
 13 28  1  0  0  0  0
 13 29  1  0  0  0  0
 14 16  2  0  0  0  0
 14 17  1  0  0  0  0
 16 19  1  0  0  0  0
 16 30  1  0  0  0  0
 17 20  2  0  0  0  0
 17 31  1  0  0  0  0
 18 32  1  0  0  0  0
 19 21  2  0  0  0  0
 20 21  1  0  0  0  0
 20 33  1  0  0  0  0
 21 22  1  0  0  0  0
M  END
> <PUBCHEM_COMPOUND_CID>
24905237

> <PUBCHEM_CONFORMER_RMSD>
0.6

> <PUBCHEM_CONFORMER_DIVERSEORDER>
1
3
4
6
5
2

> <PUBCHEM_MMFF94_PARTIAL_CHARGES>
25
1 -0.19
11 0.23
14 0.05
15 0.41
16 -0.15
17 -0.15
18 0.47
19 0.19
2 0.31
20 -0.15
21 0.07
22 0.48
3 -0.71
30 0.15
31 0.15
32 0.15
33 0.15
34 0.4
35 0.4
4 -0.57
5 -0.62
6 -0.9
7 -0.56
8 0.26
9 0.11

> <PUBCHEM_EFFECTIVE_ROTOR_COUNT>
2

> <PUBCHEM_PHARMACOPHORE_FEATURES>
10
1 3 acceptor
1 6 cation
1 6 donor
1 7 acceptor
3 2 4 9 cation
3 4 5 18 cation
3 8 12 13 hydrophobe
5 2 3 9 10 11 rings
6 14 16 17 19 20 21 rings
6 4 5 9 10 15 18 rings

> <PUBCHEM_HEAVY_ATOM_COUNT>
22

> <PUBCHEM_ATOM_DEF_STEREO_COUNT>
0

> <PUBCHEM_ATOM_UDEF_STEREO_COUNT>
0

> <PUBCHEM_BOND_DEF_STEREO_COUNT>
0

> <PUBCHEM_BOND_UDEF_STEREO_COUNT>
0

> <PUBCHEM_ISOTOPIC_ATOM_COUNT>
0

> <PUBCHEM_COMPONENT_COUNT>
1

> <PUBCHEM_CACTVS_TAUTO_COUNT>
5

> <PUBCHEM_CONFORMER_ID>
017C061500000001

> <PUBCHEM_MMFF94_ENERGY>
46.4156

> <PUBCHEM_FEATURE_SELFOVERLAP>
51.025

> <PUBCHEM_SHAPE_FINGERPRINT>
10165383 225 18268997492701009153
10319926 262 18270663334869062824
10411042 1 17978226394275281219
105312 117 18189890925090093317
11315181 36 18187924023800592696
11582403 64 16551370131244681945
11796584 16 18270683061633377078
12107183 9 18046898282915255050
12236239 1 17748821947276490714
12390115 104 18200606791363491377
12500047 106 18412537691828905568
12553582 1 18192434297512216299
12788726 201 18192164891002853447
13140716 1 18122629615921555611
13583140 156 17988914587904696382
14386348 63 17632303418868693054
14508225 48 18195230334333193781
15042514 8 18265335204126210971
16752209 62 18336536196853438451
16945 1 18410853300413934547
17844677 252 18340771541777568944
19049666 15 17917438587761720114
200 152 16660634194023516774
20510252 161 18271524290548243313
20645477 56 18412265012750441137
20645477 70 16343430505627743308
21033648 29 17346585388242325880
21065201 7 18412825794124971698
22907989 373 18261102011391620701
23175994 123 17060346257523363888
23402539 116 18340479071051402447
23557571 272 18273497896772146608
23559900 14 18201724990810391670
23598291 2 17748830743437987700
2748010 2 18194129512809015727
283562 15 18411976988518316363
4214541 1 18410853270175090272
474 4 16880482755553126756
5104073 3 18410005508261033538
5265222 85 18198913681639364446
559249 180 18335694997797375266
573450 72 18333723624787485130
57527295 17 16916213361070590233
59755656 520 18200595779104195945
6049 1 17917434275582997696
6327066 14 18043238051382502157
77492 1 17676483969056840842
81228 2 18338518663794742841
9709674 26 18272939323321880350
9862522 239 17823410496822858573

> <PUBCHEM_SHAPE_MULTIPOLES>
415.59
9.73
3.02
1.2
11.92
0.81
0.17
-3.12
-0.04
-5.77
0.02
0.77
-0.57
-0.06

> <PUBCHEM_SHAPE_SELFOVERLAP>
914.584

> <PUBCHEM_SHAPE_VOLUME>
224.6

> <PUBCHEM_COORDINATE_TYPE>
2
5
10

$$$$
