135412869
  -OEChem-10052115173D

 17 18  0     0  0  0  0  0  0999 V2000
   -2.8330    1.7276   -0.0004 Cl  0  0  0  0  0  0  0  0  0  0  0  0
    2.6676   -1.3973   -0.0002 O   0  0  0  0  0  0  0  0  0  0  0  0
    2.3218    0.8852    0.0002 N   0  0  0  0  0  0  0  0  0  0  0  0
    0.1561    1.8355    0.0000 N   0  0  0  0  0  0  0  0  0  0  0  0
    0.4374   -0.6126   -0.0003 C   0  0  0  0  0  0  0  0  0  0  0  0
   -0.3767    0.5316   -0.0002 C   0  0  0  0  0  0  0  0  0  0  0  0
   -0.1213   -1.8940   -0.0002 C   0  0  0  0  0  0  0  0  0  0  0  0
    1.9075   -0.4363    0.0000 C   0  0  0  0  0  0  0  0  0  0  0  0
   -1.7658    0.3668    0.0000 C   0  0  0  0  0  0  0  0  0  0  0  0
   -1.5078   -2.0384    0.0003 C   0  0  0  0  0  0  0  0  0  0  0  0
   -2.3285   -0.9112    0.0004 C   0  0  0  0  0  0  0  0  0  0  0  0
    1.4426    1.9433    0.0004 C   0  0  0  0  0  0  0  0  0  0  0  0
    0.5028   -2.7830   -0.0002 H   0  0  0  0  0  0  0  0  0  0  0  0
   -1.9496   -3.0307    0.0005 H   0  0  0  0  0  0  0  0  0  0  0  0
   -3.4075   -1.0452    0.0007 H   0  0  0  0  0  0  0  0  0  0  0  0
    3.3194    1.0772    0.0004 H   0  0  0  0  0  0  0  0  0  0  0  0
    1.9405    2.9247    0.0007 H   0  0  0  0  0  0  0  0  0  0  0  0
  1  9  1  0  0  0  0
  2  8  2  0  0  0  0
  3  8  1  0  0  0  0
  3 12  1  0  0  0  0
  3 16  1  0  0  0  0
  4  6  1  0  0  0  0
  4 12  2  0  0  0  0
  5  6  2  0  0  0  0
  5  7  1  0  0  0  0
  5  8  1  0  0  0  0
  6  9  1  0  0  0  0
  7 10  2  0  0  0  0
  7 13  1  0  0  0  0
  9 11  2  0  0  0  0
 10 11  1  0  0  0  0
 10 14  1  0  0  0  0
 11 15  1  0  0  0  0
 12 17  1  0  0  0  0
M  END
> <PUBCHEM_COMPOUND_CID>
135412869

> <PUBCHEM_CONFORMER_RMSD>
0.4

> <PUBCHEM_CONFORMER_DIVERSEORDER>
1

> <PUBCHEM_MMFF94_PARTIAL_CHARGES>
17
1 -0.18
10 -0.15
11 -0.15
12 0.45
13 0.15
14 0.15
15 0.15
16 0.37
17 0.06
2 -0.57
3 -0.49
4 -0.63
5 0.09
6 0.18
7 -0.15
8 0.54
9 0.18

> <PUBCHEM_EFFECTIVE_ROTOR_COUNT>
0

> <PUBCHEM_PHARMACOPHORE_FEATURES>
4
1 2 acceptor
1 3 donor
6 3 4 5 6 8 12 rings
6 5 6 7 9 10 11 rings

> <PUBCHEM_HEAVY_ATOM_COUNT>
12

> <PUBCHEM_ATOM_DEF_STEREO_COUNT>
0

> <PUBCHEM_ATOM_UDEF_STEREO_COUNT>
0

> <PUBCHEM_BOND_DEF_STEREO_COUNT>
0

> <PUBCHEM_BOND_UDEF_STEREO_COUNT>
0

> <PUBCHEM_ISOTOPIC_ATOM_COUNT>
0

> <PUBCHEM_COMPONENT_COUNT>
1

> <PUBCHEM_CACTVS_TAUTO_COUNT>
-1

> <PUBCHEM_CONFORMER_ID>
08123C8500000001

> <PUBCHEM_MMFF94_ENERGY>
29.7287

> <PUBCHEM_FEATURE_SELFOVERLAP>
20.327

> <PUBCHEM_SHAPE_FINGERPRINT>
10967382 1 18122626054760430213
11206711 2 18266181818992973533
12423570 1 17917715746428459671
12524768 44 18193556907046504367
12897270 3 17978228584148504127
16945 1 18194682806889803111
193761 8 18338799034368869605
19973954 147 18338236084452352079
20511035 2 18271800246185938732
20588541 1 18123192298880005583
21040471 1 18410855490193127749
21501502 16 18338234971981943429
2334 1 18410856594015378177
23552423 10 18118404174886048046
23559900 14 18270404872464773902
241688 4 18409446968642847632
2748010 2 18410856563950587757
5084963 1 18202564007654089315
528886 8 18267016159429545465
66348 1 18410573972282380011

> <PUBCHEM_SHAPE_MULTIPOLES>
232.99
3.65
2.46
0.6
0.01
0.06
0
0.52
0
0.38
0
0.05
0
0

> <PUBCHEM_SHAPE_SELFOVERLAP>
501.205

> <PUBCHEM_SHAPE_VOLUME>
128.3

> <PUBCHEM_COORDINATE_TYPE>
2
5
10

$$$$
