24905333
  -OEChem-10052115143D

 39 42  0     0  0  0  0  0  0999 V2000
    6.0169    1.4766    0.5323 Br  0  0  0  0  0  0  0  0  0  0  0  0
    4.2884    1.0511   -2.0309 O   0  0  0  0  0  0  0  0  0  0  0  0
   -1.9725    0.1315   -0.0111 N   0  0  0  0  0  0  0  0  0  0  0  0
   -0.8271    0.8328    0.0775 N   0  0  0  0  0  0  0  0  0  0  0  0
   -2.7330   -2.1641   -0.1290 N   0  0  0  0  0  0  0  0  0  0  0  0
   -0.8684   -3.7360   -0.0722 N   0  0  0  0  0  0  0  0  0  0  0  0
    1.4072   -3.0327    0.0828 N   0  0  0  0  0  0  0  0  0  0  0  0
   -3.2939    0.8652   -0.0634 C   0  0  0  0  0  0  0  0  0  0  0  0
   -3.4448    1.8273   -1.2603 C   0  0  0  0  0  0  0  0  0  0  0  0
   -3.5440    1.7203    1.1916 C   0  0  0  0  0  0  0  0  0  0  0  0
   -3.6171    3.2165   -0.6564 C   0  0  0  0  0  0  0  0  0  0  0  0
   -4.2831    2.9480    0.6815 C   0  0  0  0  0  0  0  0  0  0  0  0
   -1.7842   -1.2182   -0.0438 C   0  0  0  0  0  0  0  0  0  0  0  0
   -0.4162   -1.4149    0.0286 C   0  0  0  0  0  0  0  0  0  0  0  0
    0.1170   -0.1145    0.1014 C   0  0  0  0  0  0  0  0  0  0  0  0
    1.5056    0.2603    0.1933 C   0  0  0  0  0  0  0  0  0  0  0  0
    0.0353   -2.7303    0.0123 C   0  0  0  0  0  0  0  0  0  0  0  0
   -2.1777   -3.3953   -0.1368 C   0  0  0  0  0  0  0  0  0  0  0  0
    2.2472    0.4805   -0.9674 C   0  0  0  0  0  0  0  0  0  0  0  0
    2.1079    0.4026    1.4434 C   0  0  0  0  0  0  0  0  0  0  0  0
    3.5911    0.8430   -0.8780 C   0  0  0  0  0  0  0  0  0  0  0  0
    3.4519    0.7651    1.5327 C   0  0  0  0  0  0  0  0  0  0  0  0
    4.1934    0.9854    0.3720 C   0  0  0  0  0  0  0  0  0  0  0  0
   -4.0561    0.0801   -0.1371 H   0  0  0  0  0  0  0  0  0  0  0  0
   -4.3493    1.5614   -1.8211 H   0  0  0  0  0  0  0  0  0  0  0  0
   -2.6038    1.7920   -1.9600 H   0  0  0  0  0  0  0  0  0  0  0  0
   -2.6065    2.0260    1.6707 H   0  0  0  0  0  0  0  0  0  0  0  0
   -4.1295    1.1767    1.9401 H   0  0  0  0  0  0  0  0  0  0  0  0
   -4.2123    3.8753   -1.2950 H   0  0  0  0  0  0  0  0  0  0  0  0
   -2.6365    3.6827   -0.5036 H   0  0  0  0  0  0  0  0  0  0  0  0
   -4.2007    3.7966    1.3664 H   0  0  0  0  0  0  0  0  0  0  0  0
   -5.3463    2.7206    0.5401 H   0  0  0  0  0  0  0  0  0  0  0  0
   -2.8740   -4.2244   -0.2036 H   0  0  0  0  0  0  0  0  0  0  0  0
    1.7779    0.3691   -1.9429 H   0  0  0  0  0  0  0  0  0  0  0  0
    1.5437    0.2338    2.3576 H   0  0  0  0  0  0  0  0  0  0  0  0
    2.1037   -2.3049    0.1461 H   0  0  0  0  0  0  0  0  0  0  0  0
    1.6925   -4.0028    0.0677 H   0  0  0  0  0  0  0  0  0  0  0  0
    3.9046    0.8710    2.5153 H   0  0  0  0  0  0  0  0  0  0  0  0
    3.7009    0.9043   -2.7918 H   0  0  0  0  0  0  0  0  0  0  0  0
  1 23  1  0  0  0  0
  2 21  1  0  0  0  0
  2 39  1  0  0  0  0
  3  4  1  0  0  0  0
  3  8  1  0  0  0  0
  3 13  1  0  0  0  0
  4 15  2  0  0  0  0
  5 13  2  0  0  0  0
  5 18  1  0  0  0  0
  6 17  1  0  0  0  0
  6 18  2  0  0  0  0
  7 17  1  0  0  0  0
  7 36  1  0  0  0  0
  7 37  1  0  0  0  0
  8  9  1  0  0  0  0
  8 10  1  0  0  0  0
  8 24  1  0  0  0  0
  9 11  1  0  0  0  0
  9 25  1  0  0  0  0
  9 26  1  0  0  0  0
 10 12  1  0  0  0  0
 10 27  1  0  0  0  0
 10 28  1  0  0  0  0
 11 12  1  0  0  0  0
 11 29  1  0  0  0  0
 11 30  1  0  0  0  0
 12 31  1  0  0  0  0
 12 32  1  0  0  0  0
 13 14  1  0  0  0  0
 14 15  1  0  0  0  0
 14 17  2  0  0  0  0
 15 16  1  0  0  0  0
 16 19  2  0  0  0  0
 16 20  1  0  0  0  0
 18 33  1  0  0  0  0
 19 21  1  0  0  0  0
 19 34  1  0  0  0  0
 20 22  2  0  0  0  0
 20 35  1  0  0  0  0
 21 23  2  0  0  0  0
 22 23  1  0  0  0  0
 22 38  1  0  0  0  0
M  END
> <PUBCHEM_COMPOUND_CID>
24905333

> <PUBCHEM_CONFORMER_RMSD>
0.6

> <PUBCHEM_CONFORMER_DIVERSEORDER>
2
4
15
7
16
8
5
14
3
1
10
12
13
9
6
11

> <PUBCHEM_MMFF94_PARTIAL_CHARGES>
25
1 -0.11
13 0.11
15 0.23
16 0.05
17 0.41
18 0.47
19 -0.15
2 -0.53
20 -0.15
21 0.08
22 -0.15
23 0.11
3 0.31
33 0.15
34 0.15
35 0.15
36 0.4
37 0.4
38 0.15
39 0.45
4 -0.71
5 -0.57
6 -0.62
7 -0.9
8 0.26

> <PUBCHEM_EFFECTIVE_ROTOR_COUNT>
3

> <PUBCHEM_PHARMACOPHORE_FEATURES>
11
1 1 hydrophobe
1 2 donor
1 4 acceptor
1 7 cation
1 7 donor
3 3 5 13 cation
3 5 6 18 cation
5 3 4 13 14 15 rings
5 8 9 10 11 12 rings
6 16 19 20 21 22 23 rings
6 5 6 13 14 17 18 rings

> <PUBCHEM_HEAVY_ATOM_COUNT>
23

> <PUBCHEM_ATOM_DEF_STEREO_COUNT>
0

> <PUBCHEM_ATOM_UDEF_STEREO_COUNT>
0

> <PUBCHEM_BOND_DEF_STEREO_COUNT>
0

> <PUBCHEM_BOND_UDEF_STEREO_COUNT>
0

> <PUBCHEM_ISOTOPIC_ATOM_COUNT>
0

> <PUBCHEM_COMPONENT_COUNT>
1

> <PUBCHEM_CACTVS_TAUTO_COUNT>
15

> <PUBCHEM_CONFORMER_ID>
017C067500000002

> <PUBCHEM_MMFF94_ENERGY>
56.0113

> <PUBCHEM_FEATURE_SELFOVERLAP>
56.1

> <PUBCHEM_SHAPE_FINGERPRINT>
10165383 225 18340502075165589809
10411042 1 17690276436126894643
105312 117 18411420592067816828
11049842 53 18263099777001665118
11582403 64 16482136147760092826
11725454 13 16985989558764809120
11796584 16 18342744005930172062
12107183 9 18263349310427537890
12173636 292 18410288142330209389
12236239 1 17604980602331768370
12390115 104 18343032077095726889
12422481 6 17825085044837171984
12500047 106 18413101784364998920
12788726 201 18046072828249260690
13134695 92 17112123046334191783
13140716 1 18265895744570986627
13878862 14 17472128480870501573
13965767 371 18114454553347658156
14178342 30 18337100272098782498
14508225 48 17837758290557840759
14713325 29 18336267950207409155
14790565 3 18052824650209438448
15021287 119 17312814979765116852
15042514 8 18120657096029803635
15230672 131 18336830789531196390
15842332 3 17822845498396350826
16752209 62 18265604558193138994
16988056 13 16821630956978160349
1741750 31 18411980247807409857
18785283 64 17974295322214059851
19784866 34 18270399369836363409
20510252 161 18199185281415149051
21033650 10 18190482613223300284
21065201 7 18341896355036242130
21279426 13 18201165365214560934
22149856 69 18120110394955969905
2255824 54 17836644124543744383
22907989 373 18192425492623031655
23366157 5 17971753264231809739
23557571 272 18129383868469394440
23559900 14 18202008720792567276
283562 15 18267014136838182771
3091708 16 9484857347165603731
458136 41 18195537986929883697
469060 322 18337122258542714921
474 4 18124305009496124817
5048184 11 18409731733522516641
57527295 17 17131830936961872876
6327066 14 18261945267785361797
633830 44 17916024555916592261
77492 1 17604700218187008650
7808743 9 18409450319013406488
81228 2 18123469646810084227
84936 182 17984694516016724609
9849439 229 18268701715335717673
9862522 239 17968084283939449637
9981440 41 18336542725266889609

> <PUBCHEM_SHAPE_MULTIPOLES>
448.5
9.77
4.1
1.22
8.99
3.35
0.14
-9.94
-0.15
-5.19
0.12
0.83
-0.69
-0.09

> <PUBCHEM_SHAPE_SELFOVERLAP>
975.914

> <PUBCHEM_SHAPE_VOLUME>
252

> <PUBCHEM_COORDINATE_TYPE>
2
5
10

$$$$
