24905301
  -OEChem-10052115143D

 44 47  0     0  0  0  0  0  0999 V2000
   -5.8736    2.0333    0.0629 F   0  0  0  0  0  0  0  0  0  0  0  0
   -4.0944    2.2990   -2.0190 O   0  0  0  0  0  0  0  0  0  0  0  0
    5.7128    1.8436   -0.9902 N   0  0  0  0  0  0  0  0  0  0  0  0
    1.2512   -0.3656    0.9315 N   0  0  0  0  0  0  0  0  0  0  0  0
    0.2062    0.4808    0.9884 N   0  0  0  0  0  0  0  0  0  0  0  0
    1.7710   -2.6194    0.2156 N   0  0  0  0  0  0  0  0  0  0  0  0
   -0.1883   -3.7503   -0.6969 N   0  0  0  0  0  0  0  0  0  0  0  0
   -2.3300   -2.7063   -0.8405 N   0  0  0  0  0  0  0  0  0  0  0  0
    3.2882    1.0122    0.4421 C   0  0  0  0  0  0  0  0  0  0  0  0
    4.4128    1.8046    1.1206 C   0  0  0  0  0  0  0  0  0  0  0  0
    3.8477    0.2273   -0.7513 C   0  0  0  0  0  0  0  0  0  0  0  0
    2.5965    0.0821    1.4345 C   0  0  0  0  0  0  0  0  0  0  0  0
    5.1792    2.6539    0.1069 C   0  0  0  0  0  0  0  0  0  0  0  0
    4.6372    1.1386   -1.6909 C   0  0  0  0  0  0  0  0  0  0  0  0
    0.9399   -1.5809    0.3981 C   0  0  0  0  0  0  0  0  0  0  0  0
   -0.4064   -1.5263    0.0830 C   0  0  0  0  0  0  0  0  0  0  0  0
   -0.8003   -0.2318    0.4703 C   0  0  0  0  0  0  0  0  0  0  0  0
   -2.1124    0.3546    0.3634 C   0  0  0  0  0  0  0  0  0  0  0  0
   -0.9699   -2.6644   -0.4844 C   0  0  0  0  0  0  0  0  0  0  0  0
    1.1149   -3.6616   -0.3387 C   0  0  0  0  0  0  0  0  0  0  0  0
   -2.4730    1.0511   -0.7900 C   0  0  0  0  0  0  0  0  0  0  0  0
   -3.0219    0.2254    1.4131 C   0  0  0  0  0  0  0  0  0  0  0  0
   -3.7431    1.6183   -0.8939 C   0  0  0  0  0  0  0  0  0  0  0  0
   -4.2919    0.7927    1.3093 C   0  0  0  0  0  0  0  0  0  0  0  0
   -4.6525    1.4891    0.1558 C   0  0  0  0  0  0  0  0  0  0  0  0
    2.5582    1.7383    0.0575 H   0  0  0  0  0  0  0  0  0  0  0  0
    5.1073    1.1149    1.6182 H   0  0  0  0  0  0  0  0  0  0  0  0
    3.9966    2.4549    1.8992 H   0  0  0  0  0  0  0  0  0  0  0  0
    3.0349   -0.2420   -1.3168 H   0  0  0  0  0  0  0  0  0  0  0  0
    4.5007   -0.5814   -0.3976 H   0  0  0  0  0  0  0  0  0  0  0  0
    2.3816    0.5868    2.3839 H   0  0  0  0  0  0  0  0  0  0  0  0
    3.1754   -0.8225    1.6482 H   0  0  0  0  0  0  0  0  0  0  0  0
    4.5319    3.4453   -0.2904 H   0  0  0  0  0  0  0  0  0  0  0  0
    6.0133    3.1500    0.6152 H   0  0  0  0  0  0  0  0  0  0  0  0
    5.0771    0.5322   -2.4902 H   0  0  0  0  0  0  0  0  0  0  0  0
    3.9651    1.8603   -2.1712 H   0  0  0  0  0  0  0  0  0  0  0  0
    6.2024    2.4492   -1.6483 H   0  0  0  0  0  0  0  0  0  0  0  0
    1.7119   -4.5484   -0.5227 H   0  0  0  0  0  0  0  0  0  0  0  0
   -1.7658    1.1533   -1.6107 H   0  0  0  0  0  0  0  0  0  0  0  0
   -2.7566   -0.3149    2.3189 H   0  0  0  0  0  0  0  0  0  0  0  0
   -2.9364   -1.9128   -0.6950 H   0  0  0  0  0  0  0  0  0  0  0  0
   -2.6990   -3.5535   -1.2512 H   0  0  0  0  0  0  0  0  0  0  0  0
   -5.0003    0.6924    2.1264 H   0  0  0  0  0  0  0  0  0  0  0  0
   -3.3460    2.2897   -2.6403 H   0  0  0  0  0  0  0  0  0  0  0  0
  1 25  1  0  0  0  0
  2 23  1  0  0  0  0
  2 44  1  0  0  0  0
  3 13  1  0  0  0  0
  3 14  1  0  0  0  0
  3 37  1  0  0  0  0
  4  5  1  0  0  0  0
  4 12  1  0  0  0  0
  4 15  1  0  0  0  0
  5 17  2  0  0  0  0
  6 15  2  0  0  0  0
  6 20  1  0  0  0  0
  7 19  1  0  0  0  0
  7 20  2  0  0  0  0
  8 19  1  0  0  0  0
  8 41  1  0  0  0  0
  8 42  1  0  0  0  0
  9 10  1  0  0  0  0
  9 11  1  0  0  0  0
  9 12  1  0  0  0  0
  9 26  1  0  0  0  0
 10 13  1  0  0  0  0
 10 27  1  0  0  0  0
 10 28  1  0  0  0  0
 11 14  1  0  0  0  0
 11 29  1  0  0  0  0
 11 30  1  0  0  0  0
 12 31  1  0  0  0  0
 12 32  1  0  0  0  0
 13 33  1  0  0  0  0
 13 34  1  0  0  0  0
 14 35  1  0  0  0  0
 14 36  1  0  0  0  0
 15 16  1  0  0  0  0
 16 17  1  0  0  0  0
 16 19  2  0  0  0  0
 17 18  1  0  0  0  0
 18 21  2  0  0  0  0
 18 22  1  0  0  0  0
 20 38  1  0  0  0  0
 21 23  1  0  0  0  0
 21 39  1  0  0  0  0
 22 24  2  0  0  0  0
 22 40  1  0  0  0  0
 23 25  2  0  0  0  0
 24 25  1  0  0  0  0
 24 43  1  0  0  0  0
M  END
> <PUBCHEM_COMPOUND_CID>
24905301

> <PUBCHEM_CONFORMER_RMSD>
0.8

> <PUBCHEM_CONFORMER_DIVERSEORDER>
1
11
19
14
17
7
15
21
23
2
13
12
5
16
18
22
4
20
10
3
9
6
8

> <PUBCHEM_MMFF94_PARTIAL_CHARGES>
29
1 -0.19
12 0.26
13 0.27
14 0.27
15 0.11
17 0.23
18 0.05
19 0.41
2 -0.53
20 0.47
21 -0.15
22 -0.15
23 0.08
24 -0.15
25 0.19
3 -0.9
37 0.36
38 0.15
39 0.15
4 0.31
40 0.15
41 0.4
42 0.4
43 0.15
44 0.45
5 -0.71
6 -0.57
7 -0.62
8 -0.9

> <PUBCHEM_EFFECTIVE_ROTOR_COUNT>
4.2

> <PUBCHEM_PHARMACOPHORE_FEATURES>
12
1 2 donor
1 3 cation
1 3 donor
1 5 acceptor
1 8 cation
1 8 donor
3 4 6 15 cation
3 6 7 20 cation
5 4 5 15 16 17 rings
6 18 21 22 23 24 25 rings
6 3 9 10 11 13 14 rings
6 6 7 15 16 19 20 rings

> <PUBCHEM_HEAVY_ATOM_COUNT>
25

> <PUBCHEM_ATOM_DEF_STEREO_COUNT>
0

> <PUBCHEM_ATOM_UDEF_STEREO_COUNT>
0

> <PUBCHEM_BOND_DEF_STEREO_COUNT>
0

> <PUBCHEM_BOND_UDEF_STEREO_COUNT>
0

> <PUBCHEM_ISOTOPIC_ATOM_COUNT>
0

> <PUBCHEM_COMPONENT_COUNT>
1

> <PUBCHEM_CACTVS_TAUTO_COUNT>
15

> <PUBCHEM_CONFORMER_ID>
017C065500000001

> <PUBCHEM_MMFF94_ENERGY>
47.1912

> <PUBCHEM_FEATURE_SELFOVERLAP>
61.177

> <PUBCHEM_SHAPE_FINGERPRINT>
10165383 225 18340779194654890385
10498660 4 18412824715903824064
105312 117 18411419544248543500
11796584 16 12967123878732108629
12390115 104 18271253814713628843
12403259 118 17603862329743933676
12422481 6 17603578600183316508
12730499 353 18339932523910205579
12788726 201 17979621657071277362
12895836 83 18336835302834708744
12895837 130 17826530043814508892
12969540 114 18413106169099775368
13140716 1 18340761559688433074
13540713 5 18267282340044461858
13583140 156 17025414622474224715
13911987 19 18412543223763347617
14341114 328 16081092597254741240
1454969 45 18337675338703636867
14747281 78 17834973970771533765
15342168 16 18411415073398636689
15961568 22 17676496012267147533
16752209 62 18198049486120427794
16988056 13 17255662119939006276
17134986 127 18411416198685343010
17980427 23 17530970219776622485
1813 80 11386367002368091480
18222031 100 11097859566482088120
18785283 64 18193270802074313538
193927 3 10375876307286178872
204376 136 18412822482441247699
20871999 31 18128257985657537546
21033648 29 18340767147694086328
21641784 216 18192417774846629055
23227448 37 18267586995085853756
23557571 272 17914622906683120744
23559900 14 17315639487096565899
283562 15 18124868212573847099
3057174 1 18272647918154123262
350125 39 18196653110721414097
3729539 64 18053690013543138190
38570 142 17344654585583905745
458136 41 18270686363719221563
469060 322 18118130392776468275
5252454 2 18412261744142951616
53917941 68 18269831068321444890
57527293 21 18187091620468300115
59755656 520 17560260097049307803
6034566 193 18336264643056048461
6327066 14 18335978748405353644
633830 44 17775292637854077713
7808743 9 18264207079462887928
8863177 126 11311184678374505077
9862522 239 18113327639453740837

> <PUBCHEM_SHAPE_MULTIPOLES>
471.46
11.26
3.88
1.41
3.4
4.08
0.19
-13.59
1.85
0.03
1.2
-0.03
-0.63
0.23

> <PUBCHEM_SHAPE_SELFOVERLAP>
1032.695

> <PUBCHEM_SHAPE_VOLUME>
255.3

> <PUBCHEM_COORDINATE_TYPE>
2
5
10

$$$$
