44352861
  -OEChem-10062121583D

 79 87  0     1  0  0  0  0  0999 V2000
    0.0217   -0.2300    2.3679 O   0  0  0  0  0  0  0  0  0  0  0  0
   -1.1320    0.4774   -0.6806 O   0  0  0  0  0  0  0  0  0  0  0  0
   -4.5712    1.0899    0.7897 O   0  0  0  0  0  0  0  0  0  0  0  0
    6.1748   -1.5987   -1.4216 O   0  0  0  0  0  0  0  0  0  0  0  0
    0.7652    1.4332    0.9220 N   0  0  0  0  0  0  0  0  0  0  0  0
    1.1777   -1.5373    0.8299 N   0  0  0  0  0  0  0  0  0  0  0  0
   -3.4769   -0.8940    0.2663 N   0  0  0  0  0  0  0  0  0  0  0  0
    6.2440    0.7371   -1.5379 N   0  0  0  0  0  0  0  0  0  0  0  0
   -0.4006    0.9155    1.6224 C   0  0  1  0  0  0  0  0  0  0  0  0
   -1.5963    0.6401    0.6670 C   0  0  2  0  0  0  0  0  0  0  0  0
   -2.3148   -0.6407    1.0826 C   0  0  2  0  0  0  0  0  0  0  0  0
    0.0126   -1.4570    1.6807 C   0  0  2  0  0  0  0  0  0  0  0  0
   -1.3249   -1.7996    1.0085 C   0  0  0  0  0  0  0  0  0  0  0  0
    1.8960    0.8019    0.4586 C   0  0  0  0  0  0  0  0  0  0  0  0
    2.0885   -0.6100    0.4051 C   0  0  0  0  0  0  0  0  0  0  0  0
    2.9814    1.5773   -0.0978 C   0  0  0  0  0  0  0  0  0  0  0  0
    3.3429   -1.0398   -0.1912 C   0  0  0  0  0  0  0  0  0  0  0  0
   -0.8654    1.8243    2.7848 C   0  0  0  0  0  0  0  0  0  0  0  0
    1.0023    2.7536    0.5123 C   0  0  0  0  0  0  0  0  0  0  0  0
    1.7971   -2.7364    0.4628 C   0  0  0  0  0  0  0  0  0  0  0  0
    2.3305    2.8785    0.0031 C   0  0  0  0  0  0  0  0  0  0  0  0
    4.2054    1.1489   -0.6012 C   0  0  0  0  0  0  0  0  0  0  0  0
    4.3783   -0.2258   -0.6456 C   0  0  0  0  0  0  0  0  0  0  0  0
    3.0699   -2.4807   -0.1285 C   0  0  0  0  0  0  0  0  0  0  0  0
   -4.5413    0.0160    0.1827 C   0  0  0  0  0  0  0  0  0  0  0  0
   -5.6934   -0.3577   -0.6985 C   0  0  0  0  0  0  0  0  0  0  0  0
    5.3863    1.8488   -1.1855 C   0  0  0  0  0  0  0  0  0  0  0  0
   -3.4768   -2.1624   -0.4710 C   0  0  0  0  0  0  0  0  0  0  0  0
    0.1534    3.8800    0.5263 C   0  0  0  0  0  0  0  0  0  0  0  0
    5.6853   -0.5015   -1.2385 C   0  0  0  0  0  0  0  0  0  0  0  0
    1.3259   -4.0555    0.6316 C   0  0  0  0  0  0  0  0  0  0  0  0
    2.7840    4.1636   -0.3897 C   0  0  0  0  0  0  0  0  0  0  0  0
   -6.7240   -1.1545    0.1027 C   0  0  0  0  0  0  0  0  0  0  0  0
   -6.3052    0.9114   -1.2941 C   0  0  0  0  0  0  0  0  0  0  0  0
    3.8258   -3.6056   -0.5472 C   0  0  0  0  0  0  0  0  0  0  0  0
   -2.1747    0.6921   -1.6229 C   0  0  0  0  0  0  0  0  0  0  0  0
   -7.9630   -1.4662   -0.7328 C   0  0  0  0  0  0  0  0  0  0  0  0
   -7.5467    0.5987   -2.1254 C   0  0  0  0  0  0  0  0  0  0  0  0
   -8.5734   -0.1996   -1.3266 C   0  0  0  0  0  0  0  0  0  0  0  0
    0.6371    5.1265    0.1206 C   0  0  0  0  0  0  0  0  0  0  0  0
    1.9420    5.2726   -0.3168 C   0  0  0  0  0  0  0  0  0  0  0  0
    2.1084   -5.1274    0.2048 C   0  0  0  0  0  0  0  0  0  0  0  0
    3.3439   -4.9069   -0.3790 C   0  0  0  0  0  0  0  0  0  0  0  0
   -2.2418    1.5237    0.6931 H   0  0  0  0  0  0  0  0  0  0  0  0
   -2.6771   -0.5284    2.1128 H   0  0  0  0  0  0  0  0  0  0  0  0
    0.1857   -2.2087    2.4617 H   0  0  0  0  0  0  0  0  0  0  0  0
   -1.7391   -2.6723    1.5303 H   0  0  0  0  0  0  0  0  0  0  0  0
   -1.0985   -2.1222   -0.0127 H   0  0  0  0  0  0  0  0  0  0  0  0
   -0.0125    2.1506    3.3929 H   0  0  0  0  0  0  0  0  0  0  0  0
   -1.5323    1.2750    3.4620 H   0  0  0  0  0  0  0  0  0  0  0  0
   -1.4133    2.7109    2.4643 H   0  0  0  0  0  0  0  0  0  0  0  0
   -5.3636   -0.9208   -1.5742 H   0  0  0  0  0  0  0  0  0  0  0  0
    5.1363    2.4044   -2.0925 H   0  0  0  0  0  0  0  0  0  0  0  0
    5.9002    2.4796   -0.4563 H   0  0  0  0  0  0  0  0  0  0  0  0
   -2.7027   -2.1812   -1.2408 H   0  0  0  0  0  0  0  0  0  0  0  0
   -4.4136   -2.4005   -0.9684 H   0  0  0  0  0  0  0  0  0  0  0  0
   -3.3474   -2.9939    0.2286 H   0  0  0  0  0  0  0  0  0  0  0  0
   -0.8847    3.8055    0.8275 H   0  0  0  0  0  0  0  0  0  0  0  0
    0.3594   -4.2502    1.0875 H   0  0  0  0  0  0  0  0  0  0  0  0
    3.7913    4.2934   -0.7772 H   0  0  0  0  0  0  0  0  0  0  0  0
   -7.0233   -0.5881    0.9947 H   0  0  0  0  0  0  0  0  0  0  0  0
   -6.2897   -2.0916    0.4700 H   0  0  0  0  0  0  0  0  0  0  0  0
   -5.5679    1.4317   -1.9181 H   0  0  0  0  0  0  0  0  0  0  0  0
   -6.5925    1.6150   -0.5017 H   0  0  0  0  0  0  0  0  0  0  0  0
    4.7972   -3.4819   -1.0122 H   0  0  0  0  0  0  0  0  0  0  0  0
    7.1593    0.8479   -1.9627 H   0  0  0  0  0  0  0  0  0  0  0  0
   -1.6893    1.0956   -2.5192 H   0  0  0  0  0  0  0  0  0  0  0  0
   -2.8975    1.4525   -1.3163 H   0  0  0  0  0  0  0  0  0  0  0  0
   -2.6432   -0.2281   -1.9596 H   0  0  0  0  0  0  0  0  0  0  0  0
   -8.7072   -1.9775   -0.1119 H   0  0  0  0  0  0  0  0  0  0  0  0
   -7.6930   -2.1560   -1.5419 H   0  0  0  0  0  0  0  0  0  0  0  0
   -7.2553    0.0296   -3.0167 H   0  0  0  0  0  0  0  0  0  0  0  0
   -7.9994    1.5324   -2.4779 H   0  0  0  0  0  0  0  0  0  0  0  0
   -9.4177   -0.4651   -1.9726 H   0  0  0  0  0  0  0  0  0  0  0  0
   -8.9729    0.4257   -0.5187 H   0  0  0  0  0  0  0  0  0  0  0  0
   -0.0234    5.9893    0.1447 H   0  0  0  0  0  0  0  0  0  0  0  0
    2.3048    6.2473   -0.6302 H   0  0  0  0  0  0  0  0  0  0  0  0
    1.7436   -6.1429    0.3324 H   0  0  0  0  0  0  0  0  0  0  0  0
    3.9453   -5.7492   -0.7096 H   0  0  0  0  0  0  0  0  0  0  0  0
  1  9  1  0  0  0  0
  1 12  1  0  0  0  0
  2 10  1  0  0  0  0
  2 36  1  0  0  0  0
  3 25  2  0  0  0  0
  4 30  2  0  0  0  0
  5  9  1  0  0  0  0
  5 14  1  0  0  0  0
  5 19  1  0  0  0  0
  6 12  1  0  0  0  0
  6 15  1  0  0  0  0
  6 20  1  0  0  0  0
  7 11  1  0  0  0  0
  7 25  1  0  0  0  0
  7 28  1  0  0  0  0
  8 27  1  0  0  0  0
  8 30  1  0  0  0  0
  8 66  1  0  0  0  0
  9 10  1  0  0  0  0
  9 18  1  0  0  0  0
 10 11  1  0  0  0  0
 10 44  1  0  0  0  0
 11 13  1  0  0  0  0
 11 45  1  0  0  0  0
 12 13  1  0  0  0  0
 12 46  1  0  0  0  0
 13 47  1  0  0  0  0
 13 48  1  0  0  0  0
 14 15  2  0  0  0  0
 14 16  1  0  0  0  0
 15 17  1  0  0  0  0
 16 21  1  0  0  0  0
 16 22  2  0  0  0  0
 17 23  2  0  0  0  0
 17 24  1  0  0  0  0
 18 49  1  0  0  0  0
 18 50  1  0  0  0  0
 18 51  1  0  0  0  0
 19 21  1  0  0  0  0
 19 29  2  0  0  0  0
 20 24  1  0  0  0  0
 20 31  2  0  0  0  0
 21 32  2  0  0  0  0
 22 23  1  0  0  0  0
 22 27  1  0  0  0  0
 23 30  1  0  0  0  0
 24 35  2  0  0  0  0
 25 26  1  0  0  0  0
 26 33  1  0  0  0  0
 26 34  1  0  0  0  0
 26 52  1  0  0  0  0
 27 53  1  0  0  0  0
 27 54  1  0  0  0  0
 28 55  1  0  0  0  0
 28 56  1  0  0  0  0
 28 57  1  0  0  0  0
 29 40  1  0  0  0  0
 29 58  1  0  0  0  0
 31 42  1  0  0  0  0
 31 59  1  0  0  0  0
 32 41  1  0  0  0  0
 32 60  1  0  0  0  0
 33 37  1  0  0  0  0
 33 61  1  0  0  0  0
 33 62  1  0  0  0  0
 34 38  1  0  0  0  0
 34 63  1  0  0  0  0
 34 64  1  0  0  0  0
 35 43  1  0  0  0  0
 35 65  1  0  0  0  0
 36 67  1  0  0  0  0
 36 68  1  0  0  0  0
 36 69  1  0  0  0  0
 37 39  1  0  0  0  0
 37 70  1  0  0  0  0
 37 71  1  0  0  0  0
 38 39  1  0  0  0  0
 38 72  1  0  0  0  0
 38 73  1  0  0  0  0
 39 74  1  0  0  0  0
 39 75  1  0  0  0  0
 40 41  2  0  0  0  0
 40 76  1  0  0  0  0
 41 77  1  0  0  0  0
 42 43  2  0  0  0  0
 42 78  1  0  0  0  0
 43 79  1  0  0  0  0
M  END
> <PUBCHEM_COMPOUND_CID>
44352861

> <PUBCHEM_CONFORMER_RMSD>
1

> <PUBCHEM_CONFORMER_DIVERSEORDER>
1
5
3
4
2

> <PUBCHEM_MMFF94_PARTIAL_CHARGES>
43
1 -0.56
10 0.28
11 0.3
12 0.54
14 -0.05
15 -0.05
16 -0.01
17 -0.01
19 -0.15
2 -0.56
20 -0.15
22 -0.14
23 0.09
25 0.57
26 0.06
27 0.44
28 0.3
29 -0.15
3 -0.57
30 0.54
31 -0.15
32 -0.15
35 -0.15
36 0.28
4 -0.57
40 -0.15
41 -0.15
42 -0.15
43 -0.15
5 -0.04
58 0.15
59 0.15
6 -0.04
60 0.15
65 0.15
66 0.37
7 -0.66
76 0.15
77 0.15
78 0.15
79 0.15
8 -0.73
9 0.54

> <PUBCHEM_EFFECTIVE_ROTOR_COUNT>
6.4

> <PUBCHEM_PHARMACOPHORE_FEATURES>
16
1 1 acceptor
1 2 acceptor
1 3 acceptor
1 4 acceptor
1 5 cation
1 6 cation
1 8 donor
5 5 14 16 19 21 rings
5 6 15 17 20 24 rings
5 8 22 23 27 30 rings
6 1 9 10 11 12 13 rings
6 14 15 16 17 22 23 rings
6 19 21 29 32 40 41 rings
6 20 24 31 35 42 43 rings
6 26 33 34 37 38 39 rings
7 1 5 6 9 12 14 15 rings

> <PUBCHEM_HEAVY_ATOM_COUNT>
43

> <PUBCHEM_ATOM_DEF_STEREO_COUNT>
4

> <PUBCHEM_ATOM_UDEF_STEREO_COUNT>
0

> <PUBCHEM_BOND_DEF_STEREO_COUNT>
0

> <PUBCHEM_BOND_UDEF_STEREO_COUNT>
0

> <PUBCHEM_ISOTOPIC_ATOM_COUNT>
0

> <PUBCHEM_COMPONENT_COUNT>
1

> <PUBCHEM_CACTVS_TAUTO_COUNT>
2

> <PUBCHEM_CONFORMER_ID>
02A4C55D00000001

> <PUBCHEM_MMFF94_ENERGY>
190.8435

> <PUBCHEM_FEATURE_SELFOVERLAP>
82.158

> <PUBCHEM_SHAPE_FINGERPRINT>
10622 236 18056757633588368763
10673678 19 18041850622062489302
10675989 125 18336554845917831904
10693767 8 18201722825646273534
11115154 58 17918278632595734121
11135609 187 18338240487342755576
11204353 107 18267026235761692119
11445158 3 17321880568398926216
11513181 2 17836662824974042854
11621639 179 18042107775568474109
11720765 8 18342446033087681521
1361 2 18339081596119973298
13911987 19 18190484786455646948
14068700 675 18131637764116344208
14117953 113 18410576202377878062
14415360 78 18192705881058010004
15082195 135 18411133658546336603
15183329 4 18411699877264989681
15324884 4 17608951007080553168
15328829 1 17559418932268243035
15439362 3 18051130599160194292
15444296 8 17550398340746648094
15484559 13 18411698807507598462
15927050 60 17617114516719950828
15950262 2 15359129150784245612
19319366 153 18128809936126068705
20775438 99 17410197830957018398
21133410 171 17392166578621905467
22899556 105 18196666098940927350
23522609 53 17916607349209239425
23559900 14 18269552896380631881
24771750 20 17972611145141421717
3388396 114 18265632995967769142
3504750 166 16532280152951190426
3882209 13 17900524689303358618
4353968 344 18196382412578038750
46194498 28 18260818264292995871
57527452 28 15984834739467339972
5776283 40 18262241152239914509
6004065 56 18411982502950349736

> <PUBCHEM_SHAPE_MULTIPOLES>
841.52
16.05
6.3
1.65
34.6
0.9
-0.45
-4.12
12.07
-9.43
-0.18
0.8
0.35
0.05

> <PUBCHEM_SHAPE_SELFOVERLAP>
1915.281

> <PUBCHEM_SHAPE_VOLUME>
434.4

> <PUBCHEM_COORDINATE_TYPE>
2
5
10

$$$$
