46886319
  -OEChem-10052115143D

 72 78  0     0  0  0  0  0  0999 V2000
   -4.8138   -2.5227    3.5335 S   0  0  0  0  0  0  0  0  0  0  0  0
    6.3056   -3.0012    1.9401 O   0  0  0  0  0  0  0  0  0  0  0  0
    0.6085    1.4356   -0.4648 O   0  0  0  0  0  0  0  0  0  0  0  0
    4.1104   -2.3411    0.3140 N   0  0  0  0  0  0  0  0  0  0  0  0
   -4.0885   -1.7798    1.1885 N   0  0  0  0  0  0  0  0  0  0  0  0
   -4.0769    0.0030    2.5346 N   0  0  0  0  0  0  0  0  0  0  0  0
   -0.4263   -1.5545   -2.8713 N   0  0  0  0  0  0  0  0  0  0  0  0
   -2.0755   -1.1471   -1.2569 N   0  0  0  0  0  0  0  0  0  0  0  0
   -0.4513    3.5361   -0.4821 N   0  0  0  0  0  0  0  0  0  0  0  0
   -2.6127   -1.1402   -3.6061 N   0  0  0  0  0  0  0  0  0  0  0  0
    5.1606   -3.2396   -0.1847 C   0  0  0  0  0  0  0  0  0  0  0  0
    4.0024   -2.2567    1.7746 C   0  0  0  0  0  0  0  0  0  0  0  0
    6.4759   -2.9377    0.5242 C   0  0  0  0  0  0  0  0  0  0  0  0
    5.3798   -2.0080    2.3794 C   0  0  0  0  0  0  0  0  0  0  0  0
    2.9770   -2.1446   -0.4817 C   0  0  0  0  0  0  0  0  0  0  0  0
    3.1088   -1.6112   -1.7639 C   0  0  0  0  0  0  0  0  0  0  0  0
    1.7146   -2.4819    0.0070 C   0  0  0  0  0  0  0  0  0  0  0  0
   -3.6921   -0.7443    0.3988 C   0  0  0  0  0  0  0  0  0  0  0  0
   -3.6921    0.3473    1.2519 C   0  0  0  0  0  0  0  0  0  0  0  0
    0.7163   -1.7528   -2.0690 C   0  0  0  0  0  0  0  0  0  0  0  0
    1.9786   -1.4155   -2.5576 C   0  0  0  0  0  0  0  0  0  0  0  0
    0.5843   -2.2859   -0.7867 C   0  0  0  0  0  0  0  0  0  0  0  0
   -3.3405    1.6855    0.8791 C   0  0  0  0  0  0  0  0  0  0  0  0
   -4.3007   -1.2779    2.4363 C   0  0  0  0  0  0  0  0  0  0  0  0
   -3.3704   -0.8711   -0.9977 C   0  0  0  0  0  0  0  0  0  0  0  0
   -4.3138   -3.1281    1.0439 C   0  0  0  0  0  0  0  0  0  0  0  0
   -2.0670    1.9591    0.3800 C   0  0  0  0  0  0  0  0  0  0  0  0
   -1.7703   -1.2665   -2.5631 C   0  0  0  0  0  0  0  0  0  0  0  0
   -4.2720    2.7148    1.0158 C   0  0  0  0  0  0  0  0  0  0  0  0
   -1.7248    3.2618    0.0175 C   0  0  0  0  0  0  0  0  0  0  0  0
   -4.3320   -0.7172   -1.9755 C   0  0  0  0  0  0  0  0  0  0  0  0
   -4.7087   -3.6869    2.2006 C   0  0  0  0  0  0  0  0  0  0  0  0
   -3.9299    4.0176    0.6535 C   0  0  0  0  0  0  0  0  0  0  0  0
   -2.6565    4.2912    0.1541 C   0  0  0  0  0  0  0  0  0  0  0  0
   -3.8913   -0.8642   -3.2749 C   0  0  0  0  0  0  0  0  0  0  0  0
    1.8284    3.3596   -1.2528 C   0  0  0  0  0  0  0  0  0  0  0  0
    0.6115    2.6415   -0.6910 C   0  0  0  0  0  0  0  0  0  0  0  0
    3.0463    3.2527   -0.3728 C   0  0  0  0  0  0  0  0  0  0  0  0
    3.2815    4.2123    0.6119 C   0  0  0  0  0  0  0  0  0  0  0  0
    3.9389    2.1943   -0.5428 C   0  0  0  0  0  0  0  0  0  0  0  0
    4.4093    4.1134    1.4268 C   0  0  0  0  0  0  0  0  0  0  0  0
    5.0668    2.0955    0.2722 C   0  0  0  0  0  0  0  0  0  0  0  0
    5.3018    3.0549    1.2571 C   0  0  0  0  0  0  0  0  0  0  0  0
    5.3125   -3.1411   -1.2650 H   0  0  0  0  0  0  0  0  0  0  0  0
    4.8582   -4.2744    0.0187 H   0  0  0  0  0  0  0  0  0  0  0  0
    3.3345   -1.4417    2.0777 H   0  0  0  0  0  0  0  0  0  0  0  0
    3.6031   -3.2019    2.1623 H   0  0  0  0  0  0  0  0  0  0  0  0
    7.2306   -3.6788    0.2427 H   0  0  0  0  0  0  0  0  0  0  0  0
    6.8611   -1.9488    0.2472 H   0  0  0  0  0  0  0  0  0  0  0  0
    5.7588   -1.0136    2.1136 H   0  0  0  0  0  0  0  0  0  0  0  0
    5.3230   -2.0596    3.4713 H   0  0  0  0  0  0  0  0  0  0  0  0
    4.0820   -1.3283   -2.1567 H   0  0  0  0  0  0  0  0  0  0  0  0
    1.5779   -2.9202    0.9915 H   0  0  0  0  0  0  0  0  0  0  0  0
    2.0942   -0.9944   -3.5530 H   0  0  0  0  0  0  0  0  0  0  0  0
   -0.3713   -2.6048   -0.3840 H   0  0  0  0  0  0  0  0  0  0  0  0
   -0.2339   -1.4978   -3.8669 H   0  0  0  0  0  0  0  0  0  0  0  0
   -4.1750   -3.6271    0.0969 H   0  0  0  0  0  0  0  0  0  0  0  0
   -1.3766    1.1300    0.3145 H   0  0  0  0  0  0  0  0  0  0  0  0
   -5.2697    2.5188    1.4017 H   0  0  0  0  0  0  0  0  0  0  0  0
   -5.3683   -0.4953   -1.7527 H   0  0  0  0  0  0  0  0  0  0  0  0
   -4.9452   -4.7323    2.3395 H   0  0  0  0  0  0  0  0  0  0  0  0
   -4.6552    4.8190    0.7597 H   0  0  0  0  0  0  0  0  0  0  0  0
   -2.4040    5.3112   -0.1244 H   0  0  0  0  0  0  0  0  0  0  0  0
   -4.5747   -0.7608   -4.1110 H   0  0  0  0  0  0  0  0  0  0  0  0
   -0.2896    4.5126   -0.7180 H   0  0  0  0  0  0  0  0  0  0  0  0
    2.0379    2.9188   -2.2363 H   0  0  0  0  0  0  0  0  0  0  0  0
    1.6186    4.4172   -1.4527 H   0  0  0  0  0  0  0  0  0  0  0  0
    2.5920    5.0402    0.7547 H   0  0  0  0  0  0  0  0  0  0  0  0
    3.7670    1.4416   -1.3069 H   0  0  0  0  0  0  0  0  0  0  0  0
    4.5921    4.8600    2.1941 H   0  0  0  0  0  0  0  0  0  0  0  0
    5.7606    1.2702    0.1409 H   0  0  0  0  0  0  0  0  0  0  0  0
    6.1794    2.9773    1.8922 H   0  0  0  0  0  0  0  0  0  0  0  0
  1 24  1  0  0  0  0
  1 32  1  0  0  0  0
  2 13  1  0  0  0  0
  2 14  1  0  0  0  0
  3 37  2  0  0  0  0
  4 11  1  0  0  0  0
  4 12  1  0  0  0  0
  4 15  1  0  0  0  0
  5 18  1  0  0  0  0
  5 24  1  0  0  0  0
  5 26  1  0  0  0  0
  6 19  1  0  0  0  0
  6 24  2  0  0  0  0
  7 20  1  0  0  0  0
  7 28  1  0  0  0  0
  7 56  1  0  0  0  0
  8 25  2  0  0  0  0
  8 28  1  0  0  0  0
  9 30  1  0  0  0  0
  9 37  1  0  0  0  0
  9 65  1  0  0  0  0
 10 28  2  0  0  0  0
 10 35  1  0  0  0  0
 11 13  1  0  0  0  0
 11 44  1  0  0  0  0
 11 45  1  0  0  0  0
 12 14  1  0  0  0  0
 12 46  1  0  0  0  0
 12 47  1  0  0  0  0
 13 48  1  0  0  0  0
 13 49  1  0  0  0  0
 14 50  1  0  0  0  0
 14 51  1  0  0  0  0
 15 16  2  0  0  0  0
 15 17  1  0  0  0  0
 16 21  1  0  0  0  0
 16 52  1  0  0  0  0
 17 22  2  0  0  0  0
 17 53  1  0  0  0  0
 18 19  2  0  0  0  0
 18 25  1  0  0  0  0
 19 23  1  0  0  0  0
 20 21  2  0  0  0  0
 20 22  1  0  0  0  0
 21 54  1  0  0  0  0
 22 55  1  0  0  0  0
 23 27  2  0  0  0  0
 23 29  1  0  0  0  0
 25 31  1  0  0  0  0
 26 32  2  0  0  0  0
 26 57  1  0  0  0  0
 27 30  1  0  0  0  0
 27 58  1  0  0  0  0
 29 33  2  0  0  0  0
 29 59  1  0  0  0  0
 30 34  2  0  0  0  0
 31 35  2  0  0  0  0
 31 60  1  0  0  0  0
 32 61  1  0  0  0  0
 33 34  1  0  0  0  0
 33 62  1  0  0  0  0
 34 63  1  0  0  0  0
 35 64  1  0  0  0  0
 36 37  1  0  0  0  0
 36 38  1  0  0  0  0
 36 66  1  0  0  0  0
 36 67  1  0  0  0  0
 38 39  2  0  0  0  0
 38 40  1  0  0  0  0
 39 41  1  0  0  0  0
 39 68  1  0  0  0  0
 40 42  2  0  0  0  0
 40 69  1  0  0  0  0
 41 43  2  0  0  0  0
 41 70  1  0  0  0  0
 42 43  1  0  0  0  0
 42 71  1  0  0  0  0
 43 72  1  0  0  0  0
M  END
> <PUBCHEM_COMPOUND_CID>
46886319

> <PUBCHEM_CONFORMER_RMSD>
1.2

> <PUBCHEM_CONFORMER_DIVERSEORDER>
1
9
49
86
152
108
168
204
107
12
57
206
59
93
64
76
36
31
45
11
212
190
161
186
118
19
37
87
75
10
80
22
210
21
135
194
164
2
213
126
219
199
58
174
205
134
8
39
90
192
181
129
23
172
116
113
177
98
133
167
94
33
85
140
27
34
202
101
43
100
159
61
51
208
137
56
42
217
3
54
203
82
207
147
209
198
130
148
138
65
72
109
103
68
67
189
78
38
4
180
20
79
81
195
123
149
115
111
16
32
71
84
151
176
157
179
160
201
25
52
110
29
218
60
156
182
146
200
139
178
14
66
41
155
73
62
136
193
120
89
191
44
173
117
119
211
106
143
154
48
6
215
165
7
69
40
187
197
47
169
24
128
88
144
30
28
150
112
18
162
105
175
124
99
77
141
158
183
184
95
214
121
15
153
170
96
163
188
142
196
46
185
53
35
216
83
63
132
122
26
17
13
104
102
125
145
92
166
127
114
91
70
50
5
131
171
97
55
74

> <PUBCHEM_MMFF94_PARTIAL_CHARGES>
62
1 -0.16
10 -0.62
11 0.37
12 0.37
13 0.28
14 0.28
15 0.1
16 -0.15
17 -0.15
18 -0.2
19 0.17
2 -0.56
20 0.1
21 -0.15
22 -0.15
23 0.05
24 0.24
25 0.36
26 -0.18
27 -0.15
28 0.72
29 -0.15
3 -0.57
30 0.12
31 -0.15
32 -0.05
33 -0.15
34 -0.15
35 0.16
36 0.2
37 0.57
38 -0.14
39 -0.15
4 -0.84
40 -0.15
41 -0.15
42 -0.15
43 -0.15
5 0.33
52 0.15
53 0.15
54 0.15
55 0.15
56 0.4
57 0.15
58 0.15
59 0.15
6 -0.57
60 0.15
61 0.15
62 0.15
63 0.15
64 0.15
65 0.37
68 0.15
69 0.15
7 -0.6
70 0.15
71 0.15
72 0.15
8 -0.62
9 -0.55

> <PUBCHEM_EFFECTIVE_ROTOR_COUNT>
10.2

> <PUBCHEM_PHARMACOPHORE_FEATURES>
15
1 2 acceptor
1 3 acceptor
1 4 cation
1 7 donor
1 8 acceptor
1 9 donor
3 5 6 24 cation
4 7 8 10 28 cation
5 1 5 24 26 32 rings
5 5 6 18 19 24 rings
6 15 16 17 20 21 22 rings
6 2 4 11 12 13 14 rings
6 23 27 29 30 33 34 rings
6 38 39 40 41 42 43 rings
6 8 10 25 28 31 35 rings

> <PUBCHEM_HEAVY_ATOM_COUNT>
43

> <PUBCHEM_ATOM_DEF_STEREO_COUNT>
0

> <PUBCHEM_ATOM_UDEF_STEREO_COUNT>
0

> <PUBCHEM_BOND_DEF_STEREO_COUNT>
0

> <PUBCHEM_BOND_UDEF_STEREO_COUNT>
0

> <PUBCHEM_ISOTOPIC_ATOM_COUNT>
0

> <PUBCHEM_COMPONENT_COUNT>
1

> <PUBCHEM_CACTVS_TAUTO_COUNT>
6

> <PUBCHEM_CONFORMER_ID>
02CB6DAF00000001

> <PUBCHEM_MMFF94_ENERGY>
148.5287

> <PUBCHEM_FEATURE_SELFOVERLAP>
76.379

> <PUBCHEM_SHAPE_FINGERPRINT>
11578080 2 17896054298879293159
12422481 6 18129936781210468622
12655387 17 18117017537249364793
13560911 23 18336253545113854538
14004919 189 17984407800963914566
14017579 89 17047097378611831048
14950920 106 18187372008058940602
15264996 74 17485610846229545316
15324884 4 17412487740004705463
15513586 35 18058733644645045395
16120349 306 18058730358832111121
19301679 30 18046654423510166337
19319366 153 16746512907127395069
19611394 137 18194688056273879554
22122407 14 18341043043138338663
42626532 9 17906767745963659310
469060 322 18199168616826548231
581034 39 17346590902896210878

> <PUBCHEM_SHAPE_MULTIPOLES>
842.16
14.03
6.9
3.28
9.71
5.45
-1.03
-6.76
9.45
4.65
2.63
-3.55
-3.15
0.84

> <PUBCHEM_SHAPE_SELFOVERLAP>
1856.553

> <PUBCHEM_SHAPE_VOLUME>
454.9

> <PUBCHEM_COORDINATE_TYPE>
2
5
10

$$$$
