49830632
  -OEChem-10062121523D

 42 44  0     0  0  0  0  0  0999 V2000
    2.9046    2.2109    0.3328 S   0  0  0  0  0  0  0  0  0  0  0  0
    1.8957    2.3508    1.3739 O   0  0  0  0  0  0  0  0  0  0  0  0
    4.2370    2.7604    0.5392 O   0  0  0  0  0  0  0  0  0  0  0  0
   -1.4331    1.1716    1.4893 O   0  0  0  0  0  0  0  0  0  0  0  0
    1.1044   -2.6090    0.1103 N   0  0  0  0  0  0  0  0  0  0  0  0
   -0.7634   -1.2093   -0.1302 N   0  0  0  0  0  0  0  0  0  0  0  0
   -1.0266   -3.5423    0.4133 N   0  0  0  0  0  0  0  0  0  0  0  0
    3.0766    0.5195   -0.0647 C   0  0  0  0  0  0  0  0  0  0  0  0
    2.1638   -1.7162   -0.1376 C   0  0  0  0  0  0  0  0  0  0  0  0
    2.0266   -0.3651    0.1812 C   0  0  0  0  0  0  0  0  0  0  0  0
    4.2637    0.0532   -0.6293 C   0  0  0  0  0  0  0  0  0  0  0  0
    3.3510   -2.1826   -0.7021 C   0  0  0  0  0  0  0  0  0  0  0  0
   -2.6124    0.2386   -0.3865 C   0  0  0  0  0  0  0  0  0  0  0  0
   -2.1070   -1.0897   -0.1034 C   0  0  0  0  0  0  0  0  0  0  0  0
    4.4011   -1.2979   -0.9479 C   0  0  0  0  0  0  0  0  0  0  0  0
    2.2326    2.9456   -1.1411 C   0  0  0  0  0  0  0  0  0  0  0  0
   -0.2976   -2.4451    0.1332 C   0  0  0  0  0  0  0  0  0  0  0  0
   -2.2609    1.3238    0.4161 C   0  0  0  0  0  0  0  0  0  0  0  0
   -3.4609    0.4241   -1.4779 C   0  0  0  0  0  0  0  0  0  0  0  0
   -2.9646   -2.1358    0.1699 C   0  0  0  0  0  0  0  0  0  0  0  0
   -2.7577    2.5947    0.1273 C   0  0  0  0  0  0  0  0  0  0  0  0
   -3.9580    1.6951   -1.7667 C   0  0  0  0  0  0  0  0  0  0  0  0
   -2.3622   -3.3512    0.4233 C   0  0  0  0  0  0  0  0  0  0  0  0
   -3.6064    2.7805   -0.9643 C   0  0  0  0  0  0  0  0  0  0  0  0
   -2.0465    0.8753    2.7416 C   0  0  0  0  0  0  0  0  0  0  0  0
    1.1284    0.0115    0.6573 H   0  0  0  0  0  0  0  0  0  0  0  0
    5.0918    0.7252   -0.8364 H   0  0  0  0  0  0  0  0  0  0  0  0
    3.4702   -3.2328   -0.9562 H   0  0  0  0  0  0  0  0  0  0  0  0
    1.3827   -3.5832    0.1798 H   0  0  0  0  0  0  0  0  0  0  0  0
    5.3247   -1.6607   -1.3893 H   0  0  0  0  0  0  0  0  0  0  0  0
    1.2657    2.4867   -1.3572 H   0  0  0  0  0  0  0  0  0  0  0  0
    2.1048    4.0147   -0.9588 H   0  0  0  0  0  0  0  0  0  0  0  0
    2.9303    2.7892   -1.9658 H   0  0  0  0  0  0  0  0  0  0  0  0
   -3.7434   -0.4064   -2.1207 H   0  0  0  0  0  0  0  0  0  0  0  0
   -4.0420   -2.0291    0.1944 H   0  0  0  0  0  0  0  0  0  0  0  0
   -2.4873    3.4454    0.7470 H   0  0  0  0  0  0  0  0  0  0  0  0
   -4.6175    1.8401   -2.6173 H   0  0  0  0  0  0  0  0  0  0  0  0
   -2.9547   -4.2312    0.6496 H   0  0  0  0  0  0  0  0  0  0  0  0
   -3.9927    3.7702   -1.1896 H   0  0  0  0  0  0  0  0  0  0  0  0
   -2.6871    1.7045    3.0580 H   0  0  0  0  0  0  0  0  0  0  0  0
   -2.6308   -0.0482    2.6847 H   0  0  0  0  0  0  0  0  0  0  0  0
   -1.2563    0.7418    3.4855 H   0  0  0  0  0  0  0  0  0  0  0  0
  1  2  2  0  0  0  0
  1  3  2  0  0  0  0
  1  8  1  0  0  0  0
  1 16  1  0  0  0  0
  4 18  1  0  0  0  0
  4 25  1  0  0  0  0
  5  9  1  0  0  0  0
  5 17  1  0  0  0  0
  5 29  1  0  0  0  0
  6 14  2  0  0  0  0
  6 17  1  0  0  0  0
  7 17  2  0  0  0  0
  7 23  1  0  0  0  0
  8 10  1  0  0  0  0
  8 11  2  0  0  0  0
  9 10  2  0  0  0  0
  9 12  1  0  0  0  0
 10 26  1  0  0  0  0
 11 15  1  0  0  0  0
 11 27  1  0  0  0  0
 12 15  2  0  0  0  0
 12 28  1  0  0  0  0
 13 14  1  0  0  0  0
 13 18  1  0  0  0  0
 13 19  2  0  0  0  0
 14 20  1  0  0  0  0
 15 30  1  0  0  0  0
 16 31  1  0  0  0  0
 16 32  1  0  0  0  0
 16 33  1  0  0  0  0
 18 21  2  0  0  0  0
 19 22  1  0  0  0  0
 19 34  1  0  0  0  0
 20 23  2  0  0  0  0
 20 35  1  0  0  0  0
 21 24  1  0  0  0  0
 21 36  1  0  0  0  0
 22 24  2  0  0  0  0
 22 37  1  0  0  0  0
 23 38  1  0  0  0  0
 24 39  1  0  0  0  0
 25 40  1  0  0  0  0
 25 41  1  0  0  0  0
 25 42  1  0  0  0  0
M  END
> <PUBCHEM_COMPOUND_CID>
49830632

> <PUBCHEM_CONFORMER_RMSD>
0.8

> <PUBCHEM_CONFORMER_DIVERSEORDER>
1
117
101
18
3
227
192
205
201
174
52
47
19
80
15
65
114
85
63
221
206
184
70
24
108
135
195
162
72
191
145
56
89
73
171
137
22
67
147
28
116
102
39
21
10
161
88
25
179
93
16
138
130
115
98
54
207
90
155
40
153
76
236
38
113
46
17
140
110
231
83
144
86
2
136
119
68
97
109
230
225
105
33
82
126
49
157
212
106
45
156
78
14
200
194
30
99
210
163
37
23
215
139
66
27
146
150
203
41
220
233
20
125
57
34
218
199
36
120
64
158
12
111
149
169
31
186
229
118
6
35
183
84
226
59
198
42
141
44
181
74
11
55
178
95
143
50
232
148
75
4
142
235
61
13
5
107
167
133
175
79
165
228
112
81
43
187
71
69
87
224
7
168
58
123
189
151
193
204
164
190
53
32
180
173
154
241
239
100
197
238
213
77
60
202
182
96
122
91
177
128
211
234
223
159
166
8
170
222
172
29
209
219
132
9
134
208
127
176
124
196
216
26
104
240
92
214
237
48
51
129
94
217
131
185
121
188
62
103
160
152

> <PUBCHEM_MMFF94_PARTIAL_CHARGES>
35
1 1.2
10 -0.15
11 -0.15
12 -0.15
14 0.31
15 -0.15
16 0.11
17 0.72
18 0.08
19 -0.15
2 -0.65
20 -0.15
21 -0.15
22 -0.15
23 0.16
24 -0.15
25 0.28
26 0.15
27 0.15
28 0.15
29 0.4
3 -0.65
30 0.15
34 0.15
35 0.15
36 0.15
37 0.15
38 0.15
39 0.15
4 -0.36
5 -0.6
6 -0.62
7 -0.62
8 -0.01
9 0.1

> <PUBCHEM_EFFECTIVE_ROTOR_COUNT>
5

> <PUBCHEM_PHARMACOPHORE_FEATURES>
9
1 2 acceptor
1 3 acceptor
1 4 acceptor
1 5 donor
1 6 acceptor
4 5 6 7 17 cation
6 13 18 19 21 22 24 rings
6 6 7 14 17 20 23 rings
6 8 9 10 11 12 15 rings

> <PUBCHEM_HEAVY_ATOM_COUNT>
25

> <PUBCHEM_ATOM_DEF_STEREO_COUNT>
0

> <PUBCHEM_ATOM_UDEF_STEREO_COUNT>
0

> <PUBCHEM_BOND_DEF_STEREO_COUNT>
0

> <PUBCHEM_BOND_UDEF_STEREO_COUNT>
0

> <PUBCHEM_ISOTOPIC_ATOM_COUNT>
0

> <PUBCHEM_COMPONENT_COUNT>
1

> <PUBCHEM_CACTVS_TAUTO_COUNT>
3

> <PUBCHEM_CONFORMER_ID>
02F85AE800000001

> <PUBCHEM_MMFF94_ENERGY>
86.1259

> <PUBCHEM_FEATURE_SELFOVERLAP>
45.691

> <PUBCHEM_SHAPE_FINGERPRINT>
10670039 82 17902526109856322964
11370993 70 18337940259948097436
11582403 64 16879611693303818023
11725454 13 16952243210878580031
12422481 6 18043841812663036265
12539773 59 17631445662244198757
12553582 1 18126861391226273944
12596599 1 17630894798207124068
12769317 202 17684915913472277301
13122387 1 18339644430162220004
13583140 156 17530971241398681227
14223421 5 18339083825266321046
14466204 15 18408879630082656570
14468879 13 18040714749542577121
14931854 50 18269834207731880316
15082195 135 17325731845042990469
15322687 12 18193547883531420029
18219364 16 18263375697910142315
192875 21 18055901113560488450
19930381 70 17974842874878829173
20510252 161 18267024036384411219
20775438 99 17340077460443453183
21279426 13 18342186583662880084
22749437 52 18411976992348942884
23227448 37 18410291398216230079
23536364 44 17985297220762522276
23558518 356 18188772871940527538
23559900 14 18342733035976945512
238 59 18264483979956186305
350125 39 18337686285673200723
3886686 26 17973126640228381266
469060 322 17687201080522667443
474 4 17977380539109710719
508706 21 18335413612529194036
9709674 26 18340481261410668948

> <PUBCHEM_SHAPE_MULTIPOLES>
485.79
8.41
4.55
1.48
3.98
1.02
-0.64
-3.4
2.67
-0.4
-0.12
-1.18
-0.88
1.39

> <PUBCHEM_SHAPE_SELFOVERLAP>
1040.159

> <PUBCHEM_SHAPE_VOLUME>
270

> <PUBCHEM_COORDINATE_TYPE>
2
5
10

$$$$
