196804
  -OEChem-10062122013D

 57 64  0     1  0  0  0  0  0999 V2000
   -0.9583    2.1216   -1.5631 O   0  0  0  0  0  0  0  0  0  0  0  0
   -3.7283    1.7078    0.8691 O   0  0  0  0  0  0  0  0  0  0  0  0
   -1.1142    1.6614    1.9683 O   0  0  0  0  0  0  0  0  0  0  0  0
    4.3720   -2.6199    0.3605 O   0  0  0  0  0  0  0  0  0  0  0  0
   -1.6237    0.1147   -0.5144 N   0  0  0  0  0  0  0  0  0  0  0  0
    0.9788    1.6130   -0.3971 N   0  0  0  0  0  0  0  0  0  0  0  0
    2.5936   -4.1393    0.4021 N   0  0  0  0  0  0  0  0  0  0  0  0
   -2.0524    1.4517   -0.9318 C   0  0  1  0  0  0  0  0  0  0  0  0
    0.0357    2.6523   -0.7169 C   0  0  2  0  0  0  0  0  0  0  0  0
   -2.6396    2.3315    0.2051 C   0  0  2  0  0  0  0  0  0  0  0  0
   -0.3754   -0.4473   -0.3315 C   0  0  0  0  0  0  0  0  0  0  0  0
   -1.5972    2.7744    1.2260 C   0  0  2  0  0  0  0  0  0  0  0  0
    0.8614    0.2602   -0.2849 C   0  0  0  0  0  0  0  0  0  0  0  0
   -0.4614    3.4593    0.4864 C   0  0  0  0  0  0  0  0  0  0  0  0
   -0.2404   -1.8725   -0.1171 C   0  0  0  0  0  0  0  0  0  0  0  0
    2.0456   -0.5543   -0.0642 C   0  0  0  0  0  0  0  0  0  0  0  0
   -2.4516   -1.0121   -0.3112 C   0  0  0  0  0  0  0  0  0  0  0  0
   -3.0616    1.3834   -2.1033 C   0  0  0  0  0  0  0  0  0  0  0  0
    0.9068   -2.6411    0.0597 C   0  0  0  0  0  0  0  0  0  0  0  0
    2.3518    1.8048   -0.2283 C   0  0  0  0  0  0  0  0  0  0  0  0
   -1.6599   -2.1860   -0.1255 C   0  0  0  0  0  0  0  0  0  0  0  0
    2.0986   -1.9370    0.0791 C   0  0  0  0  0  0  0  0  0  0  0  0
    3.0086    0.5529   -0.0430 C   0  0  0  0  0  0  0  0  0  0  0  0
    1.1522   -4.0976    0.2741 C   0  0  0  0  0  0  0  0  0  0  0  0
   -3.8601   -1.1297   -0.2786 C   0  0  0  0  0  0  0  0  0  0  0  0
    3.1881   -2.8863    0.2946 C   0  0  0  0  0  0  0  0  0  0  0  0
   -2.3180   -3.4315    0.0498 C   0  0  0  0  0  0  0  0  0  0  0  0
    3.0799    3.0137   -0.2300 C   0  0  0  0  0  0  0  0  0  0  0  0
    4.4155    0.5805    0.1362 C   0  0  0  0  0  0  0  0  0  0  0  0
   -4.4690   -2.3747   -0.0974 C   0  0  0  0  0  0  0  0  0  0  0  0
   -4.3558    2.5908    1.7903 C   0  0  0  0  0  0  0  0  0  0  0  0
   -3.7081   -3.5172    0.0583 C   0  0  0  0  0  0  0  0  0  0  0  0
    4.4623    2.9872   -0.0507 C   0  0  0  0  0  0  0  0  0  0  0  0
    5.1243    1.7853    0.1295 C   0  0  0  0  0  0  0  0  0  0  0  0
    0.5858    3.3516   -1.3579 H   0  0  0  0  0  0  0  0  0  0  0  0
   -3.0200    3.2449   -0.2778 H   0  0  0  0  0  0  0  0  0  0  0  0
   -2.0047    3.4849    1.9514 H   0  0  0  0  0  0  0  0  0  0  0  0
   -0.8401    4.4195    0.1116 H   0  0  0  0  0  0  0  0  0  0  0  0
    0.3657    3.6805    1.1708 H   0  0  0  0  0  0  0  0  0  0  0  0
   -4.0781    1.1337   -1.7982 H   0  0  0  0  0  0  0  0  0  0  0  0
   -3.1226    2.3532   -2.6146 H   0  0  0  0  0  0  0  0  0  0  0  0
   -2.7384    0.6598   -2.8616 H   0  0  0  0  0  0  0  0  0  0  0  0
    0.7037   -4.4649    1.2003 H   0  0  0  0  0  0  0  0  0  0  0  0
    0.8530   -4.7022   -0.5854 H   0  0  0  0  0  0  0  0  0  0  0  0
   -4.5090   -0.2693   -0.3818 H   0  0  0  0  0  0  0  0  0  0  0  0
   -0.4237    1.9857    2.5710 H   0  0  0  0  0  0  0  0  0  0  0  0
   -1.7381   -4.3403    0.1909 H   0  0  0  0  0  0  0  0  0  0  0  0
    2.5801    3.9684   -0.3661 H   0  0  0  0  0  0  0  0  0  0  0  0
    3.1185   -4.9945    0.5559 H   0  0  0  0  0  0  0  0  0  0  0  0
    4.9762   -0.3351    0.2859 H   0  0  0  0  0  0  0  0  0  0  0  0
   -5.5536   -2.4413   -0.0782 H   0  0  0  0  0  0  0  0  0  0  0  0
   -4.4838    3.5972    1.3790 H   0  0  0  0  0  0  0  0  0  0  0  0
   -3.8113    2.6186    2.7382 H   0  0  0  0  0  0  0  0  0  0  0  0
   -5.3503    2.1883    2.0059 H   0  0  0  0  0  0  0  0  0  0  0  0
   -4.1907   -4.4800    0.1980 H   0  0  0  0  0  0  0  0  0  0  0  0
    5.0219    3.9186   -0.0519 H   0  0  0  0  0  0  0  0  0  0  0  0
    6.2018    1.7754    0.2694 H   0  0  0  0  0  0  0  0  0  0  0  0
  1  8  1  0  0  0  0
  1  9  1  0  0  0  0
  2 10  1  0  0  0  0
  2 31  1  0  0  0  0
  3 12  1  0  0  0  0
  3 46  1  0  0  0  0
  4 26  2  0  0  0  0
  5  8  1  0  0  0  0
  5 11  1  0  0  0  0
  5 17  1  0  0  0  0
  6  9  1  0  0  0  0
  6 13  1  0  0  0  0
  6 20  1  0  0  0  0
  7 24  1  0  0  0  0
  7 26  1  0  0  0  0
  7 49  1  0  0  0  0
  8 10  1  0  0  0  0
  8 18  1  0  0  0  0
  9 14  1  0  0  0  0
  9 35  1  0  0  0  0
 10 12  1  0  0  0  0
 10 36  1  0  0  0  0
 11 13  2  0  0  0  0
 11 15  1  0  0  0  0
 12 14  1  0  0  0  0
 12 37  1  0  0  0  0
 13 16  1  0  0  0  0
 14 38  1  0  0  0  0
 14 39  1  0  0  0  0
 15 19  2  0  0  0  0
 15 21  1  0  0  0  0
 16 22  2  0  0  0  0
 16 23  1  0  0  0  0
 17 21  1  0  0  0  0
 17 25  2  0  0  0  0
 18 40  1  0  0  0  0
 18 41  1  0  0  0  0
 18 42  1  0  0  0  0
 19 22  1  0  0  0  0
 19 24  1  0  0  0  0
 20 23  1  0  0  0  0
 20 28  2  0  0  0  0
 21 27  2  0  0  0  0
 22 26  1  0  0  0  0
 23 29  2  0  0  0  0
 24 43  1  0  0  0  0
 24 44  1  0  0  0  0
 25 30  1  0  0  0  0
 25 45  1  0  0  0  0
 27 32  1  0  0  0  0
 27 47  1  0  0  0  0
 28 33  1  0  0  0  0
 28 48  1  0  0  0  0
 29 34  1  0  0  0  0
 29 50  1  0  0  0  0
 30 32  2  0  0  0  0
 30 51  1  0  0  0  0
 31 52  1  0  0  0  0
 31 53  1  0  0  0  0
 31 54  1  0  0  0  0
 32 55  1  0  0  0  0
 33 34  2  0  0  0  0
 33 56  1  0  0  0  0
 34 57  1  0  0  0  0
M  END
> <PUBCHEM_COMPOUND_CID>
196804

> <PUBCHEM_CONFORMER_RMSD>
0.8

> <PUBCHEM_CONFORMER_DIVERSEORDER>
1

> <PUBCHEM_MMFF94_PARTIAL_CHARGES>
40
1 -0.56
10 0.28
11 -0.05
12 0.28
13 -0.05
15 -0.01
16 -0.01
17 -0.15
19 -0.14
2 -0.56
20 -0.15
22 0.09
24 0.44
25 -0.15
26 0.54
27 -0.15
28 -0.15
29 -0.15
3 -0.68
30 -0.15
31 0.28
32 -0.15
33 -0.15
34 -0.15
4 -0.57
45 0.15
46 0.4
47 0.15
48 0.15
49 0.37
5 -0.04
50 0.15
51 0.15
55 0.15
56 0.15
57 0.15
6 -0.04
7 -0.73
8 0.54
9 0.54

> <PUBCHEM_EFFECTIVE_ROTOR_COUNT>
2.2

> <PUBCHEM_PHARMACOPHORE_FEATURES>
16
1 1 acceptor
1 2 acceptor
1 3 acceptor
1 3 donor
1 4 acceptor
1 5 cation
1 6 cation
1 7 donor
5 5 11 15 17 21 rings
5 6 13 16 20 23 rings
5 7 19 22 24 26 rings
6 1 8 9 10 12 14 rings
6 11 13 15 16 19 22 rings
6 17 21 25 27 30 32 rings
6 20 23 28 29 33 34 rings
7 1 5 6 8 9 11 13 rings

> <PUBCHEM_HEAVY_ATOM_COUNT>
34

> <PUBCHEM_ATOM_DEF_STEREO_COUNT>
4

> <PUBCHEM_ATOM_UDEF_STEREO_COUNT>
0

> <PUBCHEM_BOND_DEF_STEREO_COUNT>
0

> <PUBCHEM_BOND_UDEF_STEREO_COUNT>
0

> <PUBCHEM_ISOTOPIC_ATOM_COUNT>
0

> <PUBCHEM_COMPONENT_COUNT>
1

> <PUBCHEM_CACTVS_TAUTO_COUNT>
2

> <PUBCHEM_CONFORMER_ID>
000300C400000001

> <PUBCHEM_MMFF94_ENERGY>
150.6218

> <PUBCHEM_FEATURE_SELFOVERLAP>
82.369

> <PUBCHEM_SHAPE_FINGERPRINT>
10006869 2 18343302570236667791
10190108 129 18046943555617168699
10290309 65 18121204644594069460
10967382 1 18120371227164028790
1100329 8 18195246620163423003
11513181 2 18059861666060718847
11578080 2 16807260589390611262
11582403 64 16374350894304475901
12788726 201 17908725155865097204
13140716 1 18410576136993655802
13402501 40 18048594012637925830
13583140 156 17097207225587898753
13911987 19 17902510724507527854
14223421 5 18408035212961438494
14790565 3 18048039863041144477
15927050 60 18341058431942765445
16728300 4 17608608939216563586
19591789 44 17616250720480089551
20028762 73 17550672548396697943
20510252 161 18196371639966051144
20764821 26 18337107878338261398
20775438 99 17688255306569695639
21796203 349 17402932953836694634
23559900 14 18266160778481108830
283562 15 18195245743942530842
3027735 51 18338799038653300418
3178227 256 17759252082308983691
3380486 145 18261118478391366613
350125 39 18409729582287220222
392239 28 18127132093850435400
469060 322 18262243355616029633
484989 97 17182776009683323639
5104073 3 18341040917953005800
57527295 17 17985518244169201869
57527585 103 17459208402434573507
59755656 215 18337672017997617678

> <PUBCHEM_SHAPE_MULTIPOLES>
661.28
8.39
5.92
1.13
3.15
3.11
-0.01
-0.6
-0.68
-0.08
-1.18
-1.07
-1.06
-1.1

> <PUBCHEM_SHAPE_SELFOVERLAP>
1536.107

> <PUBCHEM_SHAPE_VOLUME>
334.4

> <PUBCHEM_COORDINATE_TYPE>
2
5
10

$$$$
