25211575
  -OEChem-10062122013D

 65 69  0     0  0  0  0  0  0999 V2000
    1.3837    4.9733    1.0231 F   0  0  0  0  0  0  0  0  0  0  0  0
   -0.5607   -5.3532    0.3618 O   0  0  0  0  0  0  0  0  0  0  0  0
    1.9713    0.6726   -0.8879 O   0  0  0  0  0  0  0  0  0  0  0  0
   -1.9321    5.1143    0.7921 O   0  0  0  0  0  0  0  0  0  0  0  0
    3.0935   -1.2276   -0.1287 N   0  0  0  0  0  0  0  0  0  0  0  0
   -1.5523   -2.8825   -0.5317 N   0  0  0  0  0  0  0  0  0  0  0  0
    4.2001    1.8694   -1.5322 N   0  0  0  0  0  0  0  0  0  0  0  0
   -3.6832   -1.9901   -0.8477 N   0  0  0  0  0  0  0  0  0  0  0  0
   -1.8453   -0.6240   -0.0213 N   0  0  0  0  0  0  0  0  0  0  0  0
   -5.7476   -0.7620   -1.0583 N   0  0  0  0  0  0  0  0  0  0  0  0
   -2.1016    1.6884    0.5130 N   0  0  0  0  0  0  0  0  0  0  0  0
   -1.0937    4.5170   -1.2570 N   0  0  0  0  0  0  0  0  0  0  0  0
    3.9640   -3.3632    0.6437 C   0  0  0  0  0  0  0  0  0  0  0  0
    4.3289   -1.9140    0.3042 C   0  0  0  0  0  0  0  0  0  0  0  0
    2.4948   -3.3894    0.3764 C   0  0  0  0  0  0  0  0  0  0  0  0
    2.0283   -2.1499   -0.0661 C   0  0  0  0  0  0  0  0  0  0  0  0
    0.6872   -1.9681   -0.3708 C   0  0  0  0  0  0  0  0  0  0  0  0
    1.6395   -4.4709    0.5242 C   0  0  0  0  0  0  0  0  0  0  0  0
    2.9991    0.0988   -0.5269 C   0  0  0  0  0  0  0  0  0  0  0  0
   -0.1824   -3.0536   -0.2242 C   0  0  0  0  0  0  0  0  0  0  0  0
    0.2898   -4.2964    0.2199 C   0  0  0  0  0  0  0  0  0  0  0  0
    4.3013    0.8635   -0.4985 C   0  0  0  0  0  0  0  0  0  0  0  0
   -2.4094   -1.7705   -0.4634 C   0  0  0  0  0  0  0  0  0  0  0  0
    4.4716    1.2948   -2.8560 C   0  0  0  0  0  0  0  0  0  0  0  0
    5.1204    2.9844   -1.2758 C   0  0  0  0  0  0  0  0  0  0  0  0
   -3.9792    0.3748   -0.3095 C   0  0  0  0  0  0  0  0  0  0  0  0
   -4.4186   -0.8693   -0.7455 C   0  0  0  0  0  0  0  0  0  0  0  0
   -2.6380    0.4696    0.0590 C   0  0  0  0  0  0  0  0  0  0  0  0
   -1.1902   -5.5106    1.6312 C   0  0  0  0  0  0  0  0  0  0  0  0
   -5.0932    1.2507   -0.3678 C   0  0  0  0  0  0  0  0  0  0  0  0
   -6.1687    0.5231   -0.8315 C   0  0  0  0  0  0  0  0  0  0  0  0
   -0.8115    2.0665    0.9410 C   0  0  0  0  0  0  0  0  0  0  0  0
   -0.3498    3.3701    0.7597 C   0  0  0  0  0  0  0  0  0  0  0  0
    0.0058    1.1158    1.5525 C   0  0  0  0  0  0  0  0  0  0  0  0
    0.9292    3.7232    1.1902 C   0  0  0  0  0  0  0  0  0  0  0  0
    1.2848    1.4688    1.9828 C   0  0  0  0  0  0  0  0  0  0  0  0
    1.7464    2.7724    1.8017 C   0  0  0  0  0  0  0  0  0  0  0  0
   -1.1824    4.3836    0.1241 C   0  0  0  0  0  0  0  0  0  0  0  0
    4.1814   -3.5883    1.6923 H   0  0  0  0  0  0  0  0  0  0  0  0
    4.4983   -4.0670   -0.0018 H   0  0  0  0  0  0  0  0  0  0  0  0
    4.7492   -1.3861    1.1676 H   0  0  0  0  0  0  0  0  0  0  0  0
    5.0604   -1.8858   -0.5110 H   0  0  0  0  0  0  0  0  0  0  0  0
    0.3478   -1.0245   -0.7724 H   0  0  0  0  0  0  0  0  0  0  0  0
    2.0139   -5.4300    0.8679 H   0  0  0  0  0  0  0  0  0  0  0  0
    5.1903    0.2447   -0.6359 H   0  0  0  0  0  0  0  0  0  0  0  0
    4.3608    1.3143    0.5001 H   0  0  0  0  0  0  0  0  0  0  0  0
   -2.0438   -3.7479   -0.7337 H   0  0  0  0  0  0  0  0  0  0  0  0
    3.7682    0.4896   -3.0944 H   0  0  0  0  0  0  0  0  0  0  0  0
    5.4897    0.8956   -2.9320 H   0  0  0  0  0  0  0  0  0  0  0  0
    4.3435    2.0563   -3.6336 H   0  0  0  0  0  0  0  0  0  0  0  0
    4.8842    3.4637   -0.3191 H   0  0  0  0  0  0  0  0  0  0  0  0
    5.0145    3.7557   -2.0467 H   0  0  0  0  0  0  0  0  0  0  0  0
    6.1661    2.6573   -1.2517 H   0  0  0  0  0  0  0  0  0  0  0  0
   -1.8535   -6.3782    1.5793 H   0  0  0  0  0  0  0  0  0  0  0  0
   -1.7880   -4.6283    1.8809 H   0  0  0  0  0  0  0  0  0  0  0  0
   -0.4417   -5.6889    2.4098 H   0  0  0  0  0  0  0  0  0  0  0  0
   -5.1173    2.2986   -0.1018 H   0  0  0  0  0  0  0  0  0  0  0  0
   -6.3280   -1.5144   -1.4024 H   0  0  0  0  0  0  0  0  0  0  0  0
   -2.7483    2.4671    0.4318 H   0  0  0  0  0  0  0  0  0  0  0  0
   -7.1947    0.8059   -1.0204 H   0  0  0  0  0  0  0  0  0  0  0  0
   -0.3301    0.1043    1.7539 H   0  0  0  0  0  0  0  0  0  0  0  0
    1.9175    0.7318    2.4689 H   0  0  0  0  0  0  0  0  0  0  0  0
    2.7418    3.0476    2.1376 H   0  0  0  0  0  0  0  0  0  0  0  0
   -0.4812    3.9323   -1.8169 H   0  0  0  0  0  0  0  0  0  0  0  0
   -1.6460    5.2100   -1.7509 H   0  0  0  0  0  0  0  0  0  0  0  0
  1 35  1  0  0  0  0
  2 21  1  0  0  0  0
  2 29  1  0  0  0  0
  3 19  2  0  0  0  0
  4 38  2  0  0  0  0
  5 14  1  0  0  0  0
  5 16  1  0  0  0  0
  5 19  1  0  0  0  0
  6 20  1  0  0  0  0
  6 23  1  0  0  0  0
  6 47  1  0  0  0  0
  7 22  1  0  0  0  0
  7 24  1  0  0  0  0
  7 25  1  0  0  0  0
  8 23  2  0  0  0  0
  8 27  1  0  0  0  0
  9 23  1  0  0  0  0
  9 28  2  0  0  0  0
 10 27  1  0  0  0  0
 10 31  1  0  0  0  0
 10 58  1  0  0  0  0
 11 28  1  0  0  0  0
 11 32  1  0  0  0  0
 11 59  1  0  0  0  0
 12 38  1  0  0  0  0
 12 64  1  0  0  0  0
 12 65  1  0  0  0  0
 13 14  1  0  0  0  0
 13 15  1  0  0  0  0
 13 39  1  0  0  0  0
 13 40  1  0  0  0  0
 14 41  1  0  0  0  0
 14 42  1  0  0  0  0
 15 16  1  0  0  0  0
 15 18  2  0  0  0  0
 16 17  2  0  0  0  0
 17 20  1  0  0  0  0
 17 43  1  0  0  0  0
 18 21  1  0  0  0  0
 18 44  1  0  0  0  0
 19 22  1  0  0  0  0
 20 21  2  0  0  0  0
 22 45  1  0  0  0  0
 22 46  1  0  0  0  0
 24 48  1  0  0  0  0
 24 49  1  0  0  0  0
 24 50  1  0  0  0  0
 25 51  1  0  0  0  0
 25 52  1  0  0  0  0
 25 53  1  0  0  0  0
 26 27  2  0  0  0  0
 26 28  1  0  0  0  0
 26 30  1  0  0  0  0
 29 54  1  0  0  0  0
 29 55  1  0  0  0  0
 29 56  1  0  0  0  0
 30 31  2  0  0  0  0
 30 57  1  0  0  0  0
 31 60  1  0  0  0  0
 32 33  2  0  0  0  0
 32 34  1  0  0  0  0
 33 35  1  0  0  0  0
 33 38  1  0  0  0  0
 34 36  2  0  0  0  0
 34 61  1  0  0  0  0
 35 37  2  0  0  0  0
 36 37  1  0  0  0  0
 36 62  1  0  0  0  0
 37 63  1  0  0  0  0
M  END
> <PUBCHEM_COMPOUND_CID>
25211575

> <PUBCHEM_CONFORMER_RMSD>
1

> <PUBCHEM_CONFORMER_DIVERSEORDER>
1
261
122
37
49
136
256
193
7
223
87
245
108
56
143
217
175
231
198
255
197
160
53
237
156
259
90
46
224
174
129
164
192
65
80
88
137
179
154
73
85
178
132
187
111
98
113
62
196
190
200
186
142
115
25
269
183
74
148
135
262
185
114
134
96
22
220
127
58
77
199
44
155
17
169
273
194
141
218
265
162
271
123
168
23
47
125
240
232
89
227
184
153
81
233
242
33
264
83
221
63
201
252
109
229
38
257
100
70
149
176
159
116
133
52
60
93
18
213
91
34
249
210
267
241
106
266
247
5
10
55
150
202
219
152
204
61
40
191
78
181
177
158
214
167
128
45
16
97
239
67
28
275
145
110
20
215
157
124
207
226
21
216
48
250
258
268
222
139
107
206
228
130
31
140
57
36
82
263
68
75
189
50
131
99
163
236
79
71
103
230
212
209
171
8
251
102
76
94
182
30
39
19
166
51
101
272
180
84
112
195
173
9
24
104
66
11
13
254
260
270
43
54
69
146
244
203
2
172
161
105
42
118
151
274
253
126
243
6
144
95
92
138
211
208
15
14
41
32
86
29
59
35
117
12
238
205
170
234
26
246
27
119
72
121
64
120
235
248
225
4
188
3
147
165

> <PUBCHEM_MMFF94_PARTIAL_CHARGES>
49
1 -0.19
10 0.03
11 -0.6
12 -0.8
13 0.14
14 0.3
15 -0.14
16 0.12
17 -0.15
18 -0.15
19 0.57
2 -0.36
20 0.1
21 0.08
22 0.33
23 0.72
24 0.27
25 0.27
27 0.11
28 0.41
29 0.28
3 -0.57
30 -0.15
31 -0.3
32 0.1
33 0.09
34 -0.15
35 0.19
36 -0.15
37 -0.15
38 0.54
4 -0.57
43 0.15
44 0.15
47 0.4
5 -0.48
57 0.15
58 0.27
59 0.4
6 -0.6
60 0.15
61 0.15
62 0.15
63 0.15
64 0.37
65 0.37
7 -0.81
8 -0.57
9 -0.62

> <PUBCHEM_EFFECTIVE_ROTOR_COUNT>
9.6

> <PUBCHEM_PHARMACOPHORE_FEATURES>
15
1 10 cation
1 10 donor
1 11 donor
1 12 donor
1 2 acceptor
1 3 acceptor
1 4 acceptor
1 6 donor
1 7 cation
4 6 8 9 23 cation
5 10 26 27 30 31 rings
5 5 13 14 15 16 rings
6 15 16 17 18 20 21 rings
6 32 33 34 35 36 37 rings
6 8 9 23 26 27 28 rings

> <PUBCHEM_HEAVY_ATOM_COUNT>
38

> <PUBCHEM_ATOM_DEF_STEREO_COUNT>
0

> <PUBCHEM_ATOM_UDEF_STEREO_COUNT>
0

> <PUBCHEM_BOND_DEF_STEREO_COUNT>
0

> <PUBCHEM_BOND_UDEF_STEREO_COUNT>
0

> <PUBCHEM_ISOTOPIC_ATOM_COUNT>
0

> <PUBCHEM_COMPONENT_COUNT>
1

> <PUBCHEM_CACTVS_TAUTO_COUNT>
61

> <PUBCHEM_CONFORMER_ID>
0180B2B700000001

> <PUBCHEM_MMFF94_ENERGY>
142.4209

> <PUBCHEM_FEATURE_SELFOVERLAP>
76.326

> <PUBCHEM_SHAPE_FINGERPRINT>
10032420 55 18342738494838492512
10675989 125 18336827468529017751
1100329 8 18411691093466831282
11445158 3 16897115745982322289
11513181 2 16764206801854212399
12788726 201 18270410390547884460
13560911 43 18042119852124784186
13617811 41 18409439315449800917
138480 1 18341880867173150363
14068700 675 18196085539589514362
14394314 77 18199183992909610377
14400156 413 18044643219338167605
14932702 115 17981343483959426196
15320467 1 18412536609149019969
15439362 3 18196922478286265025
15927050 60 17982160434062887031
15950262 2 16008751354712007788
15968369 26 18193250070414641659
16728300 4 13715865600991542091
19319366 153 18409726253181651238
20642791 105 17906440044089313738
20764821 26 18268688658206888571
23559900 14 18057319703084284069
3493558 16 17902230010109423653
463206 1 18340485569563891451
508706 21 17764302138713516470
57527573 199 18126261242782953906
5776283 40 17760657262073611548

> <PUBCHEM_SHAPE_MULTIPOLES>
717.29
9.62
8.53
1.59
6.19
1.33
-0.21
-0.57
-5.31
-2.29
2.73
-1.22
-1.23
-2.22

> <PUBCHEM_SHAPE_SELFOVERLAP>
1579.566

> <PUBCHEM_SHAPE_VOLUME>
390.4

> <PUBCHEM_COORDINATE_TYPE>
2
5
10

$$$$
