49830922
  -OEChem-10052120443D

 42 45  0     0  0  0  0  0  0999 V2000
    0.0009   -2.2930   -0.4351 N   0  0  0  0  0  0  0  0  0  0  0  0
   -4.9460    0.1443    0.8442 N   0  0  0  0  0  0  0  0  0  0  0  0
    4.9460    0.1474    0.8443 N   0  0  0  0  0  0  0  0  0  0  0  0
    0.0000    0.3361    0.7964 C   0  0  0  0  0  0  0  0  0  0  0  0
   -1.2832   -0.4230    0.4724 C   0  0  0  0  0  0  0  0  0  0  0  0
    1.2837   -0.4220    0.4720 C   0  0  0  0  0  0  0  0  0  0  0  0
   -1.2477   -1.6741   -0.1811 C   0  0  0  0  0  0  0  0  0  0  0  0
    1.2489   -1.6730   -0.1812 C   0  0  0  0  0  0  0  0  0  0  0  0
   -0.0006    1.7196    0.1392 C   0  0  0  0  0  0  0  0  0  0  0  0
   -2.5197    0.1601    0.8228 C   0  0  0  0  0  0  0  0  0  0  0  0
    2.5197    0.1620    0.8222 C   0  0  0  0  0  0  0  0  0  0  0  0
   -2.4839   -2.2465   -0.5461 C   0  0  0  0  0  0  0  0  0  0  0  0
    2.4856   -2.2450   -0.5458 C   0  0  0  0  0  0  0  0  0  0  0  0
    0.0020   -3.6676   -0.9519 C   0  0  0  0  0  0  0  0  0  0  0  0
   -3.7214   -0.4486    0.4809 C   0  0  0  0  0  0  0  0  0  0  0  0
    3.7218   -0.4462    0.4804 C   0  0  0  0  0  0  0  0  0  0  0  0
   -0.0008    2.8681    0.9308 C   0  0  0  0  0  0  0  0  0  0  0  0
   -0.0012    1.8310   -1.2511 C   0  0  0  0  0  0  0  0  0  0  0  0
   -3.7026   -1.6449   -0.2186 C   0  0  0  0  0  0  0  0  0  0  0  0
    3.7039   -1.6427   -0.2184 C   0  0  0  0  0  0  0  0  0  0  0  0
   -0.0016    4.1280    0.3321 C   0  0  0  0  0  0  0  0  0  0  0  0
   -0.0018    3.0908   -1.8500 C   0  0  0  0  0  0  0  0  0  0  0  0
   -0.0020    4.2393   -1.0583 C   0  0  0  0  0  0  0  0  0  0  0  0
    0.0001    0.4554    1.8906 H   0  0  0  0  0  0  0  0  0  0  0  0
   -2.5359    1.1064    1.3603 H   0  0  0  0  0  0  0  0  0  0  0  0
    2.5354    1.1084    1.3596 H   0  0  0  0  0  0  0  0  0  0  0  0
   -2.5390   -3.1777   -1.1031 H   0  0  0  0  0  0  0  0  0  0  0  0
    2.5412   -3.1764   -1.1024 H   0  0  0  0  0  0  0  0  0  0  0  0
    0.0045   -3.6630   -2.0469 H   0  0  0  0  0  0  0  0  0  0  0  0
   -0.8541   -4.2530   -0.6002 H   0  0  0  0  0  0  0  0  0  0  0  0
    0.8564   -4.2528   -0.5959 H   0  0  0  0  0  0  0  0  0  0  0  0
   -0.0005    2.7968    2.0151 H   0  0  0  0  0  0  0  0  0  0  0  0
   -0.0011    0.9484   -1.8851 H   0  0  0  0  0  0  0  0  0  0  0  0
   -4.6294   -2.1319   -0.5118 H   0  0  0  0  0  0  0  0  0  0  0  0
    4.6310   -2.1294   -0.5112 H   0  0  0  0  0  0  0  0  0  0  0  0
   -0.0017    5.0222    0.9484 H   0  0  0  0  0  0  0  0  0  0  0  0
   -0.0022    3.1776   -2.9326 H   0  0  0  0  0  0  0  0  0  0  0  0
   -0.0025    5.2202   -1.5245 H   0  0  0  0  0  0  0  0  0  0  0  0
   -4.9550    1.0190    1.3516 H   0  0  0  0  0  0  0  0  0  0  0  0
   -5.8187   -0.2998    0.5911 H   0  0  0  0  0  0  0  0  0  0  0  0
    4.9542    1.0232    1.3499 H   0  0  0  0  0  0  0  0  0  0  0  0
    5.8190   -0.2954    0.5901 H   0  0  0  0  0  0  0  0  0  0  0  0
  1  7  1  0  0  0  0
  1  8  1  0  0  0  0
  1 14  1  0  0  0  0
  2 15  1  0  0  0  0
  2 39  1  0  0  0  0
  2 40  1  0  0  0  0
  3 16  1  0  0  0  0
  3 41  1  0  0  0  0
  3 42  1  0  0  0  0
  4  5  1  0  0  0  0
  4  6  1  0  0  0  0
  4  9  1  0  0  0  0
  4 24  1  0  0  0  0
  5  7  2  0  0  0  0
  5 10  1  0  0  0  0
  6  8  2  0  0  0  0
  6 11  1  0  0  0  0
  7 12  1  0  0  0  0
  8 13  1  0  0  0  0
  9 17  2  0  0  0  0
  9 18  1  0  0  0  0
 10 15  2  0  0  0  0
 10 25  1  0  0  0  0
 11 16  2  0  0  0  0
 11 26  1  0  0  0  0
 12 19  2  0  0  0  0
 12 27  1  0  0  0  0
 13 20  2  0  0  0  0
 13 28  1  0  0  0  0
 14 29  1  0  0  0  0
 14 30  1  0  0  0  0
 14 31  1  0  0  0  0
 15 19  1  0  0  0  0
 16 20  1  0  0  0  0
 17 21  1  0  0  0  0
 17 32  1  0  0  0  0
 18 22  2  0  0  0  0
 18 33  1  0  0  0  0
 19 34  1  0  0  0  0
 20 35  1  0  0  0  0
 21 23  2  0  0  0  0
 21 36  1  0  0  0  0
 22 23  1  0  0  0  0
 22 37  1  0  0  0  0
 23 38  1  0  0  0  0
M  END
> <PUBCHEM_COMPOUND_CID>
49830922

> <PUBCHEM_CONFORMER_RMSD>
0.6

> <PUBCHEM_CONFORMER_DIVERSEORDER>
1
2

> <PUBCHEM_MMFF94_PARTIAL_CHARGES>
38
1 -0.57
10 -0.15
11 -0.15
12 -0.15
13 -0.15
14 0.37
15 0.1
16 0.1
17 -0.15
18 -0.15
19 -0.15
2 -0.9
20 -0.15
21 -0.15
22 -0.15
23 -0.15
25 0.15
26 0.15
27 0.15
28 0.15
3 -0.9
32 0.15
33 0.15
34 0.15
35 0.15
36 0.15
37 0.15
38 0.15
39 0.4
4 0.43
40 0.4
41 0.4
42 0.4
5 -0.14
6 -0.14
7 0.1
8 0.1
9 -0.14

> <PUBCHEM_EFFECTIVE_ROTOR_COUNT>
1.4

> <PUBCHEM_PHARMACOPHORE_FEATURES>
9
1 1 cation
1 2 cation
1 2 donor
1 3 cation
1 3 donor
6 1 4 5 6 7 8 rings
6 5 7 10 12 15 19 rings
6 6 8 11 13 16 20 rings
6 9 17 18 21 22 23 rings

> <PUBCHEM_HEAVY_ATOM_COUNT>
23

> <PUBCHEM_ATOM_DEF_STEREO_COUNT>
0

> <PUBCHEM_ATOM_UDEF_STEREO_COUNT>
0

> <PUBCHEM_BOND_DEF_STEREO_COUNT>
0

> <PUBCHEM_BOND_UDEF_STEREO_COUNT>
0

> <PUBCHEM_ISOTOPIC_ATOM_COUNT>
0

> <PUBCHEM_COMPONENT_COUNT>
1

> <PUBCHEM_CACTVS_TAUTO_COUNT>
1

> <PUBCHEM_CONFORMER_ID>
02F85C0A00000001

> <PUBCHEM_MMFF94_ENERGY>
105.4171

> <PUBCHEM_FEATURE_SELFOVERLAP>
45.712

> <PUBCHEM_SHAPE_FINGERPRINT>
10162869 55 18342744023478962531
10165383 225 17187595757721201084
10871710 139 17902833749419911708
10967382 1 18343020003784603466
11640471 11 15950178446503521597
12035759 4 18119278196805264372
12403259 226 18270680836318065362
12643181 29 17185590214596608842
12730499 353 16245479115950279165
12788726 201 18187360974783245298
13004483 165 18264200327283441555
13132413 78 18343022228593025701
13140716 1 18340206297557731235
13149001 5 17532945006525591499
133893 2 17536863738975978381
13681431 1 18189347920685063232
14022347 108 18334588914305341922
14170010 4 18412545406181026041
14181834 199 18120937462566679149
14223421 5 18052260587664308362
14790565 3 18341058526754442520
14910302 57 18059026003891985838
14955137 171 18267047074720453203
15463212 79 16459674550928900245
1601671 61 18411421734402107489
16945 1 18202002126920788435
17357779 13 18338499855843089301
17980427 23 17988359394525107245
1813 80 18260554423982237505
18785283 64 18046361978838671915
20600515 1 18271810180698521310
20642791 178 18119256300698024289
20671657 1 18049445047802203701
20739085 24 18196964143478816395
21029758 27 18335140942072104506
21285901 2 18198909114976013111
21304253 335 18059307469877750529
21304303 282 16887457764966497300
21330990 113 18269562628275150081
22149856 69 17983860266998935347
22182313 1 17769930178618823182
22907989 373 18118689816302939276
2334 1 18342175600171110795
23366157 5 17612014280940451762
23419403 2 17753298106194725644
23557571 272 18335989649406358038
23558518 356 17829056415974553578
23559900 14 17846780702813889490
238 59 16025345888757967109
2748010 2 18342171154937890715
3250762 1 17691408507737516214
3380486 145 18337390448853087101
350125 39 18196659488996196842
4409770 3 18045757049410604340
5845 1 18190194411589442577
59554788 170 18270407083671311110
6443956 14 18411702097388769233
6992083 37 18341904003903602155
7364860 26 18051412065387909297
81228 2 17972900067348453441
90316 7 18192404503228729602
9981440 41 17190885608148580072

> <PUBCHEM_SHAPE_MULTIPOLES>
458.39
6.16
5.03
1.18
0.01
4.75
-0.29
-3.91
2
-0.01
-2.13
0
0.7
0

> <PUBCHEM_SHAPE_SELFOVERLAP>
1020.691

> <PUBCHEM_SHAPE_VOLUME>
239.5

> <PUBCHEM_COORDINATE_TYPE>
2
5
10

$$$$
