49830476
  -OEChem-10062121533D

 56 60  0     0  0  0  0  0  0999 V2000
    4.6724   -2.3378    0.4064 O   0  0  0  0  0  0  0  0  0  0  0  0
   -4.3689    0.0385   -0.9764 N   0  0  0  0  0  0  0  0  0  0  0  0
    1.2646   -4.8614    0.4169 N   0  0  0  0  0  0  0  0  0  0  0  0
    2.4360   -1.6383    0.1777 N   0  0  0  0  0  0  0  0  0  0  0  0
    2.2995   -4.0049    0.4231 N   0  0  0  0  0  0  0  0  0  0  0  0
   -4.4205   -1.8254    0.0963 N   0  0  0  0  0  0  0  0  0  0  0  0
   -5.1648   -0.7931   -0.2847 N   0  0  0  0  0  0  0  0  0  0  0  0
    5.6656    3.9036   -0.2177 N   0  0  0  0  0  0  0  0  0  0  0  0
    0.3150   -2.9087    0.1103 C   0  0  0  0  0  0  0  0  0  0  0  0
    0.0452   -4.2671    0.2329 C   0  0  0  0  0  0  0  0  0  0  0  0
   -2.0495   -2.5220   -0.1617 C   0  0  0  0  0  0  0  0  0  0  0  0
   -0.7472   -2.0116   -0.0911 C   0  0  0  0  0  0  0  0  0  0  0  0
    1.7179   -2.8178    0.2367 C   0  0  0  0  0  0  0  0  0  0  0  0
   -3.1510   -1.6225   -0.3689 C   0  0  0  0  0  0  0  0  0  0  0  0
   -1.2453   -4.7966    0.1657 C   0  0  0  0  0  0  0  0  0  0  0  0
   -2.2922   -3.8910   -0.0354 C   0  0  0  0  0  0  0  0  0  0  0  0
   -4.8885    1.2633   -1.5288 C   0  0  0  0  0  0  0  0  0  0  0  0
   -3.0962   -0.4367   -1.0574 C   0  0  0  0  0  0  0  0  0  0  0  0
   -5.0498    2.3597   -0.5051 C   0  0  0  0  0  0  0  0  0  0  0  0
    4.3103   -0.0558    0.1360 C   0  0  0  0  0  0  0  0  0  0  0  0
    3.8311   -1.4572    0.2622 C   0  0  0  0  0  0  0  0  0  0  0  0
    5.2113    2.5740   -0.0988 C   0  0  0  0  0  0  0  0  0  0  0  0
    5.5924    0.2015   -0.3499 C   0  0  0  0  0  0  0  0  0  0  0  0
    3.4788    1.0018    0.5042 C   0  0  0  0  0  0  0  0  0  0  0  0
    6.0429    1.5163   -0.4673 C   0  0  0  0  0  0  0  0  0  0  0  0
    3.9293    2.3167    0.3869 C   0  0  0  0  0  0  0  0  0  0  0  0
   -6.1373    2.3447    0.3682 C   0  0  0  0  0  0  0  0  0  0  0  0
   -4.1108    3.3884   -0.4318 C   0  0  0  0  0  0  0  0  0  0  0  0
   -6.2857    3.3584    1.3149 C   0  0  0  0  0  0  0  0  0  0  0  0
   -4.2589    4.4020    0.5149 C   0  0  0  0  0  0  0  0  0  0  0  0
    6.9955    4.1827   -0.7217 C   0  0  0  0  0  0  0  0  0  0  0  0
    4.8057    5.0093    0.1555 C   0  0  0  0  0  0  0  0  0  0  0  0
   -5.3466    4.3870    1.3881 C   0  0  0  0  0  0  0  0  0  0  0  0
   -0.5405   -0.9488   -0.1763 H   0  0  0  0  0  0  0  0  0  0  0  0
   -1.4315   -5.8603    0.2634 H   0  0  0  0  0  0  0  0  0  0  0  0
   -3.3051   -4.2851   -0.0948 H   0  0  0  0  0  0  0  0  0  0  0  0
    1.4591   -5.8467    0.5440 H   0  0  0  0  0  0  0  0  0  0  0  0
   -5.8538    1.0374   -1.9988 H   0  0  0  0  0  0  0  0  0  0  0  0
   -4.2188    1.5808   -2.3373 H   0  0  0  0  0  0  0  0  0  0  0  0
   -2.3091    0.0904   -1.5791 H   0  0  0  0  0  0  0  0  0  0  0  0
    1.8554   -0.8235    0.0036 H   0  0  0  0  0  0  0  0  0  0  0  0
    6.2538   -0.6081   -0.6471 H   0  0  0  0  0  0  0  0  0  0  0  0
    2.4879    0.8466    0.9202 H   0  0  0  0  0  0  0  0  0  0  0  0
    7.0472    1.6645   -0.8517 H   0  0  0  0  0  0  0  0  0  0  0  0
    3.2479    3.1041    0.6939 H   0  0  0  0  0  0  0  0  0  0  0  0
   -6.8797    1.5527    0.3191 H   0  0  0  0  0  0  0  0  0  0  0  0
   -3.2577    3.4109   -1.1047 H   0  0  0  0  0  0  0  0  0  0  0  0
   -7.1331    3.3474    1.9941 H   0  0  0  0  0  0  0  0  0  0  0  0
   -3.5274    5.2027    0.5724 H   0  0  0  0  0  0  0  0  0  0  0  0
    7.7639    3.7381   -0.0794 H   0  0  0  0  0  0  0  0  0  0  0  0
    7.1155    3.8149   -1.7468 H   0  0  0  0  0  0  0  0  0  0  0  0
    7.1999    5.2589   -0.7512 H   0  0  0  0  0  0  0  0  0  0  0  0
    3.8947    5.0255   -0.4532 H   0  0  0  0  0  0  0  0  0  0  0  0
    4.5380    4.9619    1.2169 H   0  0  0  0  0  0  0  0  0  0  0  0
    5.2992    5.9756    0.0022 H   0  0  0  0  0  0  0  0  0  0  0  0
   -5.4621    5.1763    2.1251 H   0  0  0  0  0  0  0  0  0  0  0  0
  1 21  2  0  0  0  0
  2  7  1  0  0  0  0
  2 17  1  0  0  0  0
  2 18  1  0  0  0  0
  3  5  1  0  0  0  0
  3 10  1  0  0  0  0
  3 37  1  0  0  0  0
  4 13  1  0  0  0  0
  4 21  1  0  0  0  0
  4 41  1  0  0  0  0
  5 13  2  0  0  0  0
  6  7  2  0  0  0  0
  6 14  1  0  0  0  0
  8 22  1  0  0  0  0
  8 31  1  0  0  0  0
  8 32  1  0  0  0  0
  9 10  2  0  0  0  0
  9 12  1  0  0  0  0
  9 13  1  0  0  0  0
 10 15  1  0  0  0  0
 11 12  2  0  0  0  0
 11 14  1  0  0  0  0
 11 16  1  0  0  0  0
 12 34  1  0  0  0  0
 14 18  2  0  0  0  0
 15 16  2  0  0  0  0
 15 35  1  0  0  0  0
 16 36  1  0  0  0  0
 17 19  1  0  0  0  0
 17 38  1  0  0  0  0
 17 39  1  0  0  0  0
 18 40  1  0  0  0  0
 19 27  2  0  0  0  0
 19 28  1  0  0  0  0
 20 21  1  0  0  0  0
 20 23  2  0  0  0  0
 20 24  1  0  0  0  0
 22 25  2  0  0  0  0
 22 26  1  0  0  0  0
 23 25  1  0  0  0  0
 23 42  1  0  0  0  0
 24 26  2  0  0  0  0
 24 43  1  0  0  0  0
 25 44  1  0  0  0  0
 26 45  1  0  0  0  0
 27 29  1  0  0  0  0
 27 46  1  0  0  0  0
 28 30  2  0  0  0  0
 28 47  1  0  0  0  0
 29 33  2  0  0  0  0
 29 48  1  0  0  0  0
 30 33  1  0  0  0  0
 30 49  1  0  0  0  0
 31 50  1  0  0  0  0
 31 51  1  0  0  0  0
 31 52  1  0  0  0  0
 32 53  1  0  0  0  0
 32 54  1  0  0  0  0
 32 55  1  0  0  0  0
 33 56  1  0  0  0  0
M  END
> <PUBCHEM_COMPOUND_CID>
49830476

> <PUBCHEM_CONFORMER_RMSD>
1

> <PUBCHEM_CONFORMER_DIVERSEORDER>
1
27
36
54
30
12
41
42
35
39
37
21
46
9
34
49
28
51
48
15
25
14
26
6
31
18
33
53
24
52
16
11
38
23
3
50
45
19
29
43
40
4
47
44
22
7
32
2
17
8
5
20
13
10

> <PUBCHEM_MMFF94_PARTIAL_CHARGES>
47
1 -0.57
10 -0.15
11 0.05
12 -0.15
13 0.35
14 0.17
15 -0.15
16 -0.15
17 0.4
18 -0.3
19 -0.14
2 0.31
20 0.09
21 0.54
22 0.1
23 -0.15
24 -0.15
25 -0.15
26 -0.15
27 -0.15
28 -0.15
29 -0.15
3 0.3
30 -0.15
31 0.37
32 0.37
33 -0.15
34 0.15
35 0.15
36 0.15
37 0.27
4 -0.49
40 0.15
41 0.37
42 0.15
43 0.15
44 0.15
45 0.15
46 0.15
47 0.15
48 0.15
49 0.15
5 -0.71
56 0.15
6 -0.23
7 -0.42
8 -0.84

> <PUBCHEM_EFFECTIVE_ROTOR_COUNT>
7

> <PUBCHEM_PHARMACOPHORE_FEATURES>
9
1 1 acceptor
1 3 donor
1 4 donor
1 8 cation
5 2 6 7 14 18 rings
5 3 5 9 10 13 rings
6 19 27 28 29 30 33 rings
6 20 22 23 24 25 26 rings
6 9 10 11 12 15 16 rings

> <PUBCHEM_HEAVY_ATOM_COUNT>
33

> <PUBCHEM_ATOM_DEF_STEREO_COUNT>
0

> <PUBCHEM_ATOM_UDEF_STEREO_COUNT>
0

> <PUBCHEM_BOND_DEF_STEREO_COUNT>
0

> <PUBCHEM_BOND_UDEF_STEREO_COUNT>
0

> <PUBCHEM_ISOTOPIC_ATOM_COUNT>
0

> <PUBCHEM_COMPONENT_COUNT>
1

> <PUBCHEM_CACTVS_TAUTO_COUNT>
24

> <PUBCHEM_CONFORMER_ID>
02F85A4C00000001

> <PUBCHEM_MMFF94_ENERGY>
94.5259

> <PUBCHEM_FEATURE_SELFOVERLAP>
45.764

> <PUBCHEM_SHAPE_FINGERPRINT>
100830 2 18270122310022989457
10675989 125 18339079277185877696
10917259 69 18410015464676220060
10951579 204 18048331221877392172
11408170 253 17686070796077890140
11479125 193 18410580569674303905
11761917 142 18124868221654418696
11828042 163 18341342085665751388
11828042 53 18194130831687197556
11973864 155 18270415926692911281
12107183 9 18189032297399530210
14251764 75 18410295787409094513
14429114 114 18411414046469059689
14664723 55 18188216493656542956
14747282 140 18264497359143940509
14790565 3 18410572864164993383
14849402 71 18121500146264322103
15064981 113 17417823850728876820
15320295 198 17469323635192134309
15320467 1 18049721020778764724
15351339 4 18341884212710445065
15400415 2 18409444808448975116
155225 5 18194119853021527956
15980000 95 17688584962674823458
16067689 134 17838065805478577124
16708801 149 18266999748249017281
16728433 281 18191035706407035436
16990350 14 18410570665653636048
16992779 147 18123762945905380409
19302320 297 18194120703108516099
20691028 202 18412542085596708993
22122407 14 18337957775146594571
23569914 152 17771932467039440532
3525247 154 17695626642791658384
3918712 181 18336816563850237717
4173938 77 17766012605392068689
437795 171 18261100834033472764
44575985 301 18271802437416495216
4487111 67 18193552496189139384
5047190 92 18410858755091082681
5104073 3 17970349205506530339
5223283 242 17411923681602250863
53794403 172 18267588996324095415
550186 72 17906732862012187574
5951187 136 18128544764634503718
6036956 94 18047761678120476940
6176135 31 18337945684534211392
6201320 215 17979347888014956136

> <PUBCHEM_SHAPE_MULTIPOLES>
638.39
18.37
9.31
0.95
5.23
0.07
-0.05
29.65
-0.57
0.44
1.8
-1.1
0.61
-2.82

> <PUBCHEM_SHAPE_SELFOVERLAP>
1412.641

> <PUBCHEM_SHAPE_VOLUME>
344

> <PUBCHEM_COORDINATE_TYPE>
2
5
10

$$$$
