24899916
  -OEChem-10062122023D

 33 35  0     0  0  0  0  0  0999 V2000
   -1.1971    1.9223   -0.0006 O   0  0  0  0  0  0  0  0  0  0  0  0
    3.7974   -2.0862   -0.0017 O   0  0  0  0  0  0  0  0  0  0  0  0
   -3.8919    1.6080   -0.0012 O   0  0  0  0  0  0  0  0  0  0  0  0
    2.9784    2.5698    0.0014 O   0  0  0  0  0  0  0  0  0  0  0  0
   -5.0367   -0.9163   -0.0002 O   0  0  0  0  0  0  0  0  0  0  0  0
    0.5432    3.3726   -0.0004 O   0  0  0  0  0  0  0  0  0  0  0  0
   -0.8609   -0.4973    0.0005 C   0  0  0  0  0  0  0  0  0  0  0  0
    0.5897   -0.2698    0.0005 C   0  0  0  0  0  0  0  0  0  0  0  0
    1.0812    1.0475    0.0008 C   0  0  0  0  0  0  0  0  0  0  0  0
   -1.7136    0.6090   -0.0003 C   0  0  0  0  0  0  0  0  0  0  0  0
   -1.4728   -1.7617    0.0007 C   0  0  0  0  0  0  0  0  0  0  0  0
    1.5356   -1.3124   -0.0001 C   0  0  0  0  0  0  0  0  0  0  0  0
   -3.1064    0.4955   -0.0008 C   0  0  0  0  0  0  0  0  0  0  0  0
    2.4612    1.3074    0.0011 C   0  0  0  0  0  0  0  0  0  0  0  0
   -2.8675   -1.8957    0.0000 C   0  0  0  0  0  0  0  0  0  0  0  0
    0.1610    2.2100    0.0005 C   0  0  0  0  0  0  0  0  0  0  0  0
   -3.6835   -0.7679   -0.0009 C   0  0  0  0  0  0  0  0  0  0  0  0
    2.9095   -1.0535   -0.0004 C   0  0  0  0  0  0  0  0  0  0  0  0
   -0.7824   -3.0876    0.0028 C   0  0  0  0  0  0  0  0  0  0  0  0
    3.3720    0.2558    0.0003 C   0  0  0  0  0  0  0  0  0  0  0  0
    5.1836   -1.7495   -0.0019 C   0  0  0  0  0  0  0  0  0  0  0  0
    1.3194   -2.3621   -0.0014 H   0  0  0  0  0  0  0  0  0  0  0  0
   -3.3365   -2.8776    0.0004 H   0  0  0  0  0  0  0  0  0  0  0  0
   -0.2038   -3.2337   -0.9147 H   0  0  0  0  0  0  0  0  0  0  0  0
   -0.2020   -3.2300    0.9197 H   0  0  0  0  0  0  0  0  0  0  0  0
   -1.4926   -3.9255    0.0054 H   0  0  0  0  0  0  0  0  0  0  0  0
    4.4241    0.5209    0.0002 H   0  0  0  0  0  0  0  0  0  0  0  0
   -4.8233    1.3266   -0.0015 H   0  0  0  0  0  0  0  0  0  0  0  0
    2.2756    3.2356    0.0109 H   0  0  0  0  0  0  0  0  0  0  0  0
   -5.2533   -1.8644    0.0000 H   0  0  0  0  0  0  0  0  0  0  0  0
    5.7440   -2.6903   -0.0029 H   0  0  0  0  0  0  0  0  0  0  0  0
    5.4677   -1.2105    0.9083 H   0  0  0  0  0  0  0  0  0  0  0  0
    5.4671   -1.2091   -0.9114 H   0  0  0  0  0  0  0  0  0  0  0  0
  1 10  1  0  0  0  0
  1 16  1  0  0  0  0
  2 18  1  0  0  0  0
  2 21  1  0  0  0  0
  3 13  1  0  0  0  0
  3 28  1  0  0  0  0
  4 14  1  0  0  0  0
  4 29  1  0  0  0  0
  5 17  1  0  0  0  0
  5 30  1  0  0  0  0
  6 16  2  0  0  0  0
  7  8  1  0  0  0  0
  7 10  2  0  0  0  0
  7 11  1  0  0  0  0
  8  9  2  0  0  0  0
  8 12  1  0  0  0  0
  9 14  1  0  0  0  0
  9 16  1  0  0  0  0
 10 13  1  0  0  0  0
 11 15  2  0  0  0  0
 11 19  1  0  0  0  0
 12 18  2  0  0  0  0
 12 22  1  0  0  0  0
 13 17  2  0  0  0  0
 14 20  2  0  0  0  0
 15 17  1  0  0  0  0
 15 23  1  0  0  0  0
 18 20  1  0  0  0  0
 19 24  1  0  0  0  0
 19 25  1  0  0  0  0
 19 26  1  0  0  0  0
 20 27  1  0  0  0  0
 21 31  1  0  0  0  0
 21 32  1  0  0  0  0
 21 33  1  0  0  0  0
M  END
> <PUBCHEM_COMPOUND_CID>
24899916

> <PUBCHEM_CONFORMER_RMSD>
0.6

> <PUBCHEM_CONFORMER_DIVERSEORDER>
1

> <PUBCHEM_MMFF94_PARTIAL_CHARGES>
25
1 -0.23
10 0.08
11 -0.14
12 -0.15
13 0.08
14 0.08
15 -0.15
16 0.63
17 0.08
18 0.08
19 0.14
2 -0.36
20 -0.15
21 0.28
22 0.15
23 0.15
27 0.15
28 0.45
29 0.45
3 -0.53
30 0.45
4 -0.53
5 -0.53
6 -0.57
9 0.09

> <PUBCHEM_EFFECTIVE_ROTOR_COUNT>
1

> <PUBCHEM_PHARMACOPHORE_FEATURES>
8
1 2 acceptor
1 3 donor
1 4 donor
1 5 donor
1 6 acceptor
6 1 7 8 9 10 16 rings
6 7 10 11 13 15 17 rings
6 8 9 12 14 18 20 rings

> <PUBCHEM_HEAVY_ATOM_COUNT>
21

> <PUBCHEM_ATOM_DEF_STEREO_COUNT>
0

> <PUBCHEM_ATOM_UDEF_STEREO_COUNT>
0

> <PUBCHEM_BOND_DEF_STEREO_COUNT>
0

> <PUBCHEM_BOND_UDEF_STEREO_COUNT>
0

> <PUBCHEM_ISOTOPIC_ATOM_COUNT>
0

> <PUBCHEM_COMPONENT_COUNT>
1

> <PUBCHEM_CACTVS_TAUTO_COUNT>
162

> <PUBCHEM_CONFORMER_ID>
017BF14C00000001

> <PUBCHEM_MMFF94_ENERGY>
94.7648

> <PUBCHEM_FEATURE_SELFOVERLAP>
40.649

> <PUBCHEM_SHAPE_FINGERPRINT>
10319926 262 17980173329411179994
10411042 1 18410856525507359238
10608611 8 18338514252441583237
10616163 171 18050852418148365478
10693767 8 18128794474619123463
10967382 1 18338799030026384070
1100329 8 18340491045620943593
11578080 2 16842470456373501371
11680986 33 18264492956332398347
116883 192 18270124487718295998
12403259 226 18337105761251544565
12507560 14 18343866627758739167
12553582 1 18337660932882516914
13140716 1 18411424981450137609
13583140 156 14404608862499934455
138480 1 18410855507858709348
13862211 1 18410569557135829071
14178342 30 17908969243256523698
14223421 5 18049725418756125915
14790565 3 17979366265373134144
14866123 147 17764875692882974666
15042514 8 17833265325507034026
15099037 51 18337952281793433655
15196674 1 18410573980882903077
15442244 35 18411700993159862648
15536298 74 18341894125425924064
16945 1 18122626321148616357
17492 89 18266739280089901771
17804303 29 18411703149492083582
18186145 218 17748820821731392983
19591789 44 18409729543305505915
20028762 73 18201997772589679703
20510252 161 18055349129112228728
20739085 24 18192176865693831105
21267235 1 18410582781361011619
21501502 16 18339924921353880679
221490 88 18263651812804883202
2297311 6 18269847428221634542
2334 1 18410856598315600743
23366157 5 18041840739865187924
23402539 116 18270673169315905182
23463225 33 18410856576856588604
23557571 272 17985834727456048470
23559900 14 18341608201332521800
2748010 2 18410570678095263589
3004659 81 18187368693156409198
335352 9 18338797793144394541
34934 24 18268425926704821518
350125 39 18410015403454368793
5104073 3 18411420613442024425
7364860 26 18268430307566422536
7832392 63 18268428125696668934
8809292 202 18335424543200187882
9709674 26 18265053720116194115
9981440 41 17400355045466862976

> <PUBCHEM_SHAPE_MULTIPOLES>
396.95
7.92
3.3
0.59
0.75
0.87
0
-3.17
0
0.95
0
0.01
-0.03
0

> <PUBCHEM_SHAPE_SELFOVERLAP>
888.269

> <PUBCHEM_SHAPE_VOLUME>
210.3

> <PUBCHEM_COORDINATE_TYPE>
2
5
10

$$$$
