11430448
  -OEChem-10062122003D

 50 52  0     0  0  0  0  0  0999 V2000
    4.9164   -2.5763    0.2705 Cl  0  0  0  0  0  0  0  0  0  0  0  0
    0.6238    1.3157   -0.8671 O   0  0  0  0  0  0  0  0  0  0  0  0
   -3.4208    1.5016    0.8044 O   0  0  0  0  0  0  0  0  0  0  0  0
    5.2924    0.3792   -0.0928 O   0  0  0  0  0  0  0  0  0  0  0  0
    0.2119   -3.5777   -1.0230 O   0  0  0  0  0  0  0  0  0  0  0  0
    7.1291   -0.1572    1.9522 O   0  0  0  0  0  0  0  0  0  0  0  0
   -0.0197   -1.3084   -0.5721 N   0  0  0  0  0  0  0  0  0  0  0  0
   -1.8546   -2.7970   -0.5586 N   0  0  0  0  0  0  0  0  0  0  0  0
   -2.5943   -0.5863    0.0982 N   0  0  0  0  0  0  0  0  0  0  0  0
   -5.1726   -1.6264    0.4276 N   0  0  0  0  0  0  0  0  0  0  0  0
   -6.9730    1.0578    1.3626 N   0  0  0  0  0  0  0  0  0  0  0  0
   -1.0194    4.0478   -0.5999 C   0  0  0  0  0  0  0  0  0  0  0  0
   -0.2558    3.3972   -1.7596 C   0  0  0  0  0  0  0  0  0  0  0  0
   -1.6763    3.0917    0.3928 C   0  0  0  0  0  0  0  0  0  0  0  0
    0.9876    2.6214   -1.3248 C   0  0  0  0  0  0  0  0  0  0  0  0
   -2.7474    2.2115   -0.2413 C   0  0  0  0  0  0  0  0  0  0  0  0
    1.6645    0.4543   -0.5976 C   0  0  0  0  0  0  0  0  0  0  0  0
    1.3407   -0.9117   -0.4569 C   0  0  0  0  0  0  0  0  0  0  0  0
    3.0001    0.8648   -0.4629 C   0  0  0  0  0  0  0  0  0  0  0  0
    4.0069   -0.0623   -0.1975 C   0  0  0  0  0  0  0  0  0  0  0  0
    2.3663   -1.8285   -0.1776 C   0  0  0  0  0  0  0  0  0  0  0  0
    3.6904   -1.4061   -0.0538 C   0  0  0  0  0  0  0  0  0  0  0  0
   -3.6367    0.1811    0.4870 C   0  0  0  0  0  0  0  0  0  0  0  0
   -0.4903   -2.6042   -0.7330 C   0  0  0  0  0  0  0  0  0  0  0  0
   -2.8528   -1.8854   -0.1517 C   0  0  0  0  0  0  0  0  0  0  0  0
    5.5672    1.3387    0.9254 C   0  0  0  0  0  0  0  0  0  0  0  0
   -4.8982   -0.3341    0.6756 C   0  0  0  0  0  0  0  0  0  0  0  0
   -4.1365   -2.3841    0.0092 C   0  0  0  0  0  0  0  0  0  0  0  0
    6.9917    1.1511    1.4106 C   0  0  0  0  0  0  0  0  0  0  0  0
   -6.0405    0.4321    1.0538 C   0  0  0  0  0  0  0  0  0  0  0  0
   -0.3362    4.7065   -0.0493 H   0  0  0  0  0  0  0  0  0  0  0  0
   -1.7943    4.6999   -1.0228 H   0  0  0  0  0  0  0  0  0  0  0  0
   -0.9226    2.7538   -2.3432 H   0  0  0  0  0  0  0  0  0  0  0  0
    0.0686    4.2078   -2.4242 H   0  0  0  0  0  0  0  0  0  0  0  0
   -0.9270    2.4659    0.8905 H   0  0  0  0  0  0  0  0  0  0  0  0
   -2.1350    3.6817    1.1970 H   0  0  0  0  0  0  0  0  0  0  0  0
    1.6454    2.5261   -2.1980 H   0  0  0  0  0  0  0  0  0  0  0  0
    1.5036    3.1762   -0.5325 H   0  0  0  0  0  0  0  0  0  0  0  0
   -3.4958    2.8345   -0.7446 H   0  0  0  0  0  0  0  0  0  0  0  0
   -2.3062    1.5524   -0.9973 H   0  0  0  0  0  0  0  0  0  0  0  0
    3.2804    1.9080   -0.5724 H   0  0  0  0  0  0  0  0  0  0  0  0
    2.1537   -2.8810   -0.0199 H   0  0  0  0  0  0  0  0  0  0  0  0
   -0.6928   -0.5494   -0.6276 H   0  0  0  0  0  0  0  0  0  0  0  0
    5.4438    2.3450    0.5113 H   0  0  0  0  0  0  0  0  0  0  0  0
    4.8758    1.2097    1.7681 H   0  0  0  0  0  0  0  0  0  0  0  0
   -2.1740   -3.7517   -0.7072 H   0  0  0  0  0  0  0  0  0  0  0  0
   -4.3816   -3.4237   -0.1821 H   0  0  0  0  0  0  0  0  0  0  0  0
    7.2534    1.8838    2.1794 H   0  0  0  0  0  0  0  0  0  0  0  0
    7.6994    1.2364    0.5806 H   0  0  0  0  0  0  0  0  0  0  0  0
    6.5099   -0.2322    2.6981 H   0  0  0  0  0  0  0  0  0  0  0  0
  1 22  1  0  0  0  0
  2 15  1  0  0  0  0
  2 17  1  0  0  0  0
  3 16  1  0  0  0  0
  3 23  1  0  0  0  0
  4 20  1  0  0  0  0
  4 26  1  0  0  0  0
  5 24  2  0  0  0  0
  6 29  1  0  0  0  0
  6 50  1  0  0  0  0
  7 18  1  0  0  0  0
  7 24  1  0  0  0  0
  7 43  1  0  0  0  0
  8 24  1  0  0  0  0
  8 25  1  0  0  0  0
  8 46  1  0  0  0  0
  9 23  2  0  0  0  0
  9 25  1  0  0  0  0
 10 27  2  0  0  0  0
 10 28  1  0  0  0  0
 11 30  3  0  0  0  0
 12 13  1  0  0  0  0
 12 14  1  0  0  0  0
 12 31  1  0  0  0  0
 12 32  1  0  0  0  0
 13 15  1  0  0  0  0
 13 33  1  0  0  0  0
 13 34  1  0  0  0  0
 14 16  1  0  0  0  0
 14 35  1  0  0  0  0
 14 36  1  0  0  0  0
 15 37  1  0  0  0  0
 15 38  1  0  0  0  0
 16 39  1  0  0  0  0
 16 40  1  0  0  0  0
 17 18  1  0  0  0  0
 17 19  2  0  0  0  0
 18 21  2  0  0  0  0
 19 20  1  0  0  0  0
 19 41  1  0  0  0  0
 20 22  2  0  0  0  0
 21 22  1  0  0  0  0
 21 42  1  0  0  0  0
 23 27  1  0  0  0  0
 25 28  2  0  0  0  0
 26 29  1  0  0  0  0
 26 44  1  0  0  0  0
 26 45  1  0  0  0  0
 27 30  1  0  0  0  0
 28 47  1  0  0  0  0
 29 48  1  0  0  0  0
 29 49  1  0  0  0  0
M  END
> <PUBCHEM_COMPOUND_CID>
11430448

> <PUBCHEM_CONFORMER_RMSD>
0.8

> <PUBCHEM_CONFORMER_DIVERSEORDER>
1
2
23
4
24
20
22
12
7
14
29
8
26
19
3
30
13
17
5
18
6
9
16
10
27
15
21
28
25
11

> <PUBCHEM_MMFF94_PARTIAL_CHARGES>
33
1 -0.18
10 -0.62
11 -0.56
15 0.28
16 0.28
17 0.08
18 0.12
19 -0.15
2 -0.36
20 0.08
21 -0.15
22 0.18
23 0.39
24 0.69
25 0.43
26 0.28
27 0.38
28 0.16
29 0.28
3 -0.36
30 0.48
4 -0.36
41 0.15
42 0.15
43 0.37
46 0.37
47 0.15
5 -0.57
50 0.4
6 -0.68
7 -0.55
8 -0.55
9 -0.62

> <PUBCHEM_EFFECTIVE_ROTOR_COUNT>
4.8

> <PUBCHEM_PHARMACOPHORE_FEATURES>
11
1 10 acceptor
1 11 acceptor
1 2 acceptor
1 4 acceptor
1 5 acceptor
1 6 acceptor
1 6 donor
1 7 donor
1 8 donor
6 17 18 19 20 21 22 rings
6 9 10 23 25 27 28 rings

> <PUBCHEM_HEAVY_ATOM_COUNT>
30

> <PUBCHEM_ATOM_DEF_STEREO_COUNT>
0

> <PUBCHEM_ATOM_UDEF_STEREO_COUNT>
0

> <PUBCHEM_BOND_DEF_STEREO_COUNT>
0

> <PUBCHEM_BOND_UDEF_STEREO_COUNT>
0

> <PUBCHEM_ISOTOPIC_ATOM_COUNT>
0

> <PUBCHEM_COMPONENT_COUNT>
1

> <PUBCHEM_CACTVS_TAUTO_COUNT>
5

> <PUBCHEM_CONFORMER_ID>
00AE6A3000000001

> <PUBCHEM_MMFF94_ENERGY>
98.0633

> <PUBCHEM_FEATURE_SELFOVERLAP>
55.867

> <PUBCHEM_SHAPE_FINGERPRINT>
10838868 229 18048302359628831370
10939801 23 18337397153250206516
1100329 8 18193282012249562455
11595378 159 18187629290006645216
12838862 33 18340476808305400017
13140716 1 18121215656747499372
14028597 1 17385992967355839512
14117953 113 18338809901506658149
14394314 77 18342181072566205249
14395042 24 18197221554656373523
14790565 3 17470742464215538700
15328829 1 17604162514589521868
15950262 2 15697455333744394345
16110190 28 18410577322409897765
1813 80 17312823775615228198
18336668 15 18187645864080049925
18608769 82 18410856530772575804
20642791 178 18264788708555938677
21033648 29 17988919024226618874
21421861 104 18187914068293793586
21796203 349 17757879749715302609
22113638 7 18339930428108512047
23845131 108 17760356696220770164
24771293 8 18270679895741040780
25019877 29 17417817304481975463
3680242 22 18336284378968544809
392239 28 18131353050396844784
474144 1 17897185699574118989
5047190 48 18412826911011621830
5104073 3 18266736879650862248
552612 73 18201708584188341120
653340 110 18339362937932222320

> <PUBCHEM_SHAPE_MULTIPOLES>
565
15.03
4.43
1.24
6.81
1.54
0.15
-0.64
10.52
-1.58
-1.73
0.65
0.57
0.01

> <PUBCHEM_SHAPE_SELFOVERLAP>
1183.769

> <PUBCHEM_SHAPE_VOLUME>
315.3

> <PUBCHEM_COORDINATE_TYPE>
2
5
10

$$$$
