468759
  -OEChem-10062122013D

 63 69  0     1  0  0  0  0  0999 V2000
   -3.0432   -0.7092    0.7787 O   0  0  0  0  0  0  0  0  0  0  0  0
   -1.6168    1.2878   -1.9723 O   0  0  0  0  0  0  0  0  0  0  0  0
   -6.1146    1.0392   -0.2300 O   0  0  0  0  0  0  0  0  0  0  0  0
   -3.7091    2.4370   -0.5745 O   0  0  0  0  0  0  0  0  0  0  0  0
   -4.5771   -1.2346    2.9936 O   0  0  0  0  0  0  0  0  0  0  0  0
    3.9873   -3.3523   -0.2031 O   0  0  0  0  0  0  0  0  0  0  0  0
    5.4705    1.0238    0.0937 O   0  0  0  0  0  0  0  0  0  0  0  0
   -0.8397   -0.7506    0.0044 N   0  0  0  0  0  0  0  0  0  0  0  0
    0.0530    1.8787    0.1833 N   0  0  0  0  0  0  0  0  0  0  0  0
    5.1216   -1.2963   -0.0754 N   0  0  0  0  0  0  0  0  0  0  0  0
   -2.0658    0.0578    0.0679 C   0  0  1  0  0  0  0  0  0  0  0  0
   -2.5729    0.4513   -1.3295 C   0  0  1  0  0  0  0  0  0  0  0  0
   -3.9149    1.1805   -1.2266 C   0  0  1  0  0  0  0  0  0  0  0  0
   -4.8928    0.3336   -0.4087 C   0  0  1  0  0  0  0  0  0  0  0  0
    0.4826   -0.4685    0.0152 C   0  0  0  0  0  0  0  0  0  0  0  0
   -4.2862   -0.0226    0.9556 C   0  0  1  0  0  0  0  0  0  0  0  0
    1.4932   -1.4845   -0.0630 C   0  0  0  0  0  0  0  0  0  0  0  0
   -0.8110   -2.1336   -0.0927 C   0  0  0  0  0  0  0  0  0  0  0  0
    0.9318    0.8541    0.1052 C   0  0  0  0  0  0  0  0  0  0  0  0
    0.5442   -2.6054   -0.1354 C   0  0  0  0  0  0  0  0  0  0  0  0
    2.8685   -1.2674   -0.0570 C   0  0  0  0  0  0  0  0  0  0  0  0
    2.3536    1.0492    0.1095 C   0  0  0  0  0  0  0  0  0  0  0  0
    3.3141    0.0440    0.0322 C   0  0  0  0  0  0  0  0  0  0  0  0
   -5.2029   -0.9406    1.7580 C   0  0  0  0  0  0  0  0  0  0  0  0
    2.2826    2.5143    0.2137 C   0  0  0  0  0  0  0  0  0  0  0  0
    0.9183    2.9600    0.2541 C   0  0  0  0  0  0  0  0  0  0  0  0
   -1.9021   -3.0143   -0.1469 C   0  0  0  0  0  0  0  0  0  0  0  0
    4.0279   -2.1398   -0.1244 C   0  0  0  0  0  0  0  0  0  0  0  0
    0.7374   -4.0045   -0.2356 C   0  0  0  0  0  0  0  0  0  0  0  0
    4.7669    0.0349    0.0230 C   0  0  0  0  0  0  0  0  0  0  0  0
   -1.6563   -4.3843   -0.2450 C   0  0  0  0  0  0  0  0  0  0  0  0
   -0.3575   -4.8738   -0.2890 C   0  0  0  0  0  0  0  0  0  0  0  0
    3.2883    3.5088    0.2776 C   0  0  0  0  0  0  0  0  0  0  0  0
    0.5880    4.3203    0.3526 C   0  0  0  0  0  0  0  0  0  0  0  0
   -6.7268    1.3445   -1.4753 C   0  0  0  0  0  0  0  0  0  0  0  0
    6.4943   -1.7595   -0.1224 C   0  0  0  0  0  0  0  0  0  0  0  0
    2.9479    4.8623    0.3759 C   0  0  0  0  0  0  0  0  0  0  0  0
    1.6179    5.2597    0.4125 C   0  0  0  0  0  0  0  0  0  0  0  0
   -1.9077    0.8685    0.7700 H   0  0  0  0  0  0  0  0  0  0  0  0
   -2.7019   -0.4459   -1.9468 H   0  0  0  0  0  0  0  0  0  0  0  0
   -4.2733    1.4040   -2.2362 H   0  0  0  0  0  0  0  0  0  0  0  0
   -5.0912   -0.6003   -0.9535 H   0  0  0  0  0  0  0  0  0  0  0  0
   -4.1047    0.8785    1.5564 H   0  0  0  0  0  0  0  0  0  0  0  0
   -5.3634   -1.8877    1.2320 H   0  0  0  0  0  0  0  0  0  0  0  0
   -6.1698   -0.4689    1.9573 H   0  0  0  0  0  0  0  0  0  0  0  0
   -0.9279    1.9803    0.0321 H   0  0  0  0  0  0  0  0  0  0  0  0
   -2.9356   -2.6925   -0.1762 H   0  0  0  0  0  0  0  0  0  0  0  0
   -1.8434    2.2144   -1.7847 H   0  0  0  0  0  0  0  0  0  0  0  0
    1.7371   -4.4252   -0.2734 H   0  0  0  0  0  0  0  0  0  0  0  0
   -4.5783    2.8570   -0.4619 H   0  0  0  0  0  0  0  0  0  0  0  0
   -2.4931   -5.0758   -0.3012 H   0  0  0  0  0  0  0  0  0  0  0  0
   -0.1873   -5.9442   -0.3690 H   0  0  0  0  0  0  0  0  0  0  0  0
    4.3389    3.2380    0.2516 H   0  0  0  0  0  0  0  0  0  0  0  0
   -0.4493    4.6408    0.3817 H   0  0  0  0  0  0  0  0  0  0  0  0
   -6.7050    0.4922   -2.1622 H   0  0  0  0  0  0  0  0  0  0  0  0
   -6.2741    2.2276   -1.9343 H   0  0  0  0  0  0  0  0  0  0  0  0
   -7.7749    1.5887   -1.2771 H   0  0  0  0  0  0  0  0  0  0  0  0
    7.1514   -0.9669   -0.4895 H   0  0  0  0  0  0  0  0  0  0  0  0
    6.5660   -2.6438   -0.7613 H   0  0  0  0  0  0  0  0  0  0  0  0
    6.7940   -2.0337    0.8933 H   0  0  0  0  0  0  0  0  0  0  0  0
   -5.1745   -1.8240    3.4848 H   0  0  0  0  0  0  0  0  0  0  0  0
    3.7355    5.6097    0.4238 H   0  0  0  0  0  0  0  0  0  0  0  0
    1.3741    6.3161    0.4887 H   0  0  0  0  0  0  0  0  0  0  0  0
  1 11  1  0  0  0  0
  1 16  1  0  0  0  0
  2 12  1  0  0  0  0
  2 48  1  0  0  0  0
  3 14  1  0  0  0  0
  3 35  1  0  0  0  0
  4 13  1  0  0  0  0
  4 50  1  0  0  0  0
  5 24  1  0  0  0  0
  5 61  1  0  0  0  0
  6 28  2  0  0  0  0
  7 30  2  0  0  0  0
  8 11  1  0  0  0  0
  8 15  1  0  0  0  0
  8 18  1  0  0  0  0
  9 19  1  0  0  0  0
  9 26  1  0  0  0  0
  9 46  1  0  0  0  0
 10 28  1  0  0  0  0
 10 30  1  0  0  0  0
 10 36  1  0  0  0  0
 11 12  1  0  0  0  0
 11 39  1  0  0  0  0
 12 13  1  0  0  0  0
 12 40  1  0  0  0  0
 13 14  1  0  0  0  0
 13 41  1  0  0  0  0
 14 16  1  0  0  0  0
 14 42  1  0  0  0  0
 15 17  1  0  0  0  0
 15 19  2  0  0  0  0
 16 24  1  0  0  0  0
 16 43  1  0  0  0  0
 17 20  1  0  0  0  0
 17 21  2  0  0  0  0
 18 20  1  0  0  0  0
 18 27  2  0  0  0  0
 19 22  1  0  0  0  0
 20 29  2  0  0  0  0
 21 23  1  0  0  0  0
 21 28  1  0  0  0  0
 22 23  2  0  0  0  0
 22 25  1  0  0  0  0
 23 30  1  0  0  0  0
 24 44  1  0  0  0  0
 24 45  1  0  0  0  0
 25 26  1  0  0  0  0
 25 33  2  0  0  0  0
 26 34  2  0  0  0  0
 27 31  1  0  0  0  0
 27 47  1  0  0  0  0
 29 32  1  0  0  0  0
 29 49  1  0  0  0  0
 31 32  2  0  0  0  0
 31 51  1  0  0  0  0
 32 52  1  0  0  0  0
 33 37  1  0  0  0  0
 33 53  1  0  0  0  0
 34 38  1  0  0  0  0
 34 54  1  0  0  0  0
 35 55  1  0  0  0  0
 35 56  1  0  0  0  0
 35 57  1  0  0  0  0
 36 58  1  0  0  0  0
 36 59  1  0  0  0  0
 36 60  1  0  0  0  0
 37 38  2  0  0  0  0
 37 62  1  0  0  0  0
 38 63  1  0  0  0  0
M  END
> <PUBCHEM_COMPOUND_CID>
468759

> <PUBCHEM_CONFORMER_RMSD>
0.8

> <PUBCHEM_CONFORMER_DIVERSEORDER>
1
12
18
11
4
15
14
21
17
20
19
6
16
3
9
13
5
8
10
7
2

> <PUBCHEM_MMFF94_PARTIAL_CHARGES>
48
1 -0.56
10 -0.42
11 0.54
12 0.28
13 0.28
14 0.28
15 -0.05
16 0.28
17 -0.01
18 -0.15
19 -0.05
2 -0.68
21 0.09
22 -0.01
23 0.09
24 0.28
26 -0.15
27 -0.15
28 0.54
29 -0.15
3 -0.56
30 0.54
31 -0.15
32 -0.15
33 -0.15
34 -0.15
35 0.28
36 0.3
37 -0.15
38 -0.15
4 -0.68
46 0.27
47 0.15
48 0.4
49 0.15
5 -0.68
50 0.4
51 0.15
52 0.15
53 0.15
54 0.15
6 -0.57
61 0.4
62 0.15
63 0.15
7 -0.57
8 -0.04
9 -0.05

> <PUBCHEM_EFFECTIVE_ROTOR_COUNT>
4.4

> <PUBCHEM_PHARMACOPHORE_FEATURES>
20
1 1 acceptor
1 2 acceptor
1 2 donor
1 3 acceptor
1 4 acceptor
1 4 donor
1 5 acceptor
1 5 donor
1 6 acceptor
1 7 acceptor
1 8 cation
1 9 cation
1 9 donor
5 10 21 23 28 30 rings
5 8 15 17 18 20 rings
5 9 19 22 25 26 rings
6 1 11 12 13 14 16 rings
6 15 17 19 21 22 23 rings
6 18 20 27 29 31 32 rings
6 25 26 33 34 37 38 rings

> <PUBCHEM_HEAVY_ATOM_COUNT>
38

> <PUBCHEM_ATOM_DEF_STEREO_COUNT>
0

> <PUBCHEM_ATOM_UDEF_STEREO_COUNT>
5

> <PUBCHEM_BOND_DEF_STEREO_COUNT>
0

> <PUBCHEM_BOND_UDEF_STEREO_COUNT>
0

> <PUBCHEM_ISOTOPIC_ATOM_COUNT>
0

> <PUBCHEM_COMPONENT_COUNT>
1

> <PUBCHEM_CACTVS_TAUTO_COUNT>
5

> <PUBCHEM_CONFORMER_ID>
0007271700000001

> <PUBCHEM_MMFF94_ENERGY>
156.867

> <PUBCHEM_FEATURE_SELFOVERLAP>
101.993

> <PUBCHEM_SHAPE_FINGERPRINT>
102385 1 18051123997837080206
10675989 125 16893411478744794133
10930396 42 18053065538499466458
1100329 8 18411981403464861818
11513181 2 17841152465425042862
12058002 1 17344381958049965486
12788726 201 17616241490536926216
13140716 1 18267028447420961970
13402501 40 18261391096913099279
13911987 19 18336837394209190158
140371 6 18342745105035507256
14068700 675 17916574354653831745
14415360 78 18264186141180712165
14725015 67 18053374410825124378
14790565 3 18339646625022643356
14955137 171 18337966614120535794
15081414 286 18342186548611869378
15276724 80 18052818341287998951
15320467 1 18339640040510653061
15324884 4 17896025693854243893
15439362 3 18340195414179363020
15444296 8 16978431245490440959
15815584 197 18196668301968564279
15927050 60 18124314075987580852
16087824 20 18267586810112304356
16728300 4 17246363632097842490
18681886 176 18340758273906127931
19591789 44 18339078173047167950
20775438 99 17406784886434186295
21033648 29 18339348708531127536
21033650 10 14548199682619459827
21133410 127 17827066622183845645
21792961 116 18188493446285949726
22121540 332 17388508593746016261
22122407 14 18272100375076775569
23559900 14 18341040921414314896
23569943 247 17128468506088720510
24771293 8 18129923647158409816
24771750 20 18047769366802767652
283562 15 18053381003361819496
3178227 256 18410301285352193235
335352 9 18411417285660488774
350125 39 18266743669635687843
6004065 56 18340757174779316543
6086070 43 18335965524517508235
9961470 85 18127678534176924600

> <PUBCHEM_SHAPE_MULTIPOLES>
725.99
11.93
6.7
1.17
6.11
1.79
-0.42
1.2
-0.08
-4.96
-0.11
2.33
0.06
1.89

> <PUBCHEM_SHAPE_SELFOVERLAP>
1656.2

> <PUBCHEM_SHAPE_VOLUME>
377.5

> <PUBCHEM_COORDINATE_TYPE>
2
5
10

$$$$
