11210054
  -OEChem-10052115193D

 42 44  0     0  0  0  0  0  0999 V2000
    2.4824    0.6087   -1.8859 S   0  0  0  0  0  0  0  0  0  0  0  0
    4.4898   -1.0925   -2.1191 O   0  0  0  0  0  0  0  0  0  0  0  0
   -2.2543   -3.1840    0.4062 O   0  0  0  0  0  0  0  0  0  0  0  0
    3.6156   -0.6708    0.0352 N   0  0  0  0  0  0  0  0  0  0  0  0
   -0.4184    1.2435   -0.0409 N   0  0  0  0  0  0  0  0  0  0  0  0
   -2.7282    1.6031    0.1635 N   0  0  0  0  0  0  0  0  0  0  0  0
   -1.2911    3.4370    0.4431 N   0  0  0  0  0  0  0  0  0  0  0  0
    2.6203    0.0985    0.6306 C   0  0  0  0  0  0  0  0  0  0  0  0
    1.9292    0.8361   -0.2555 C   0  0  0  0  0  0  0  0  0  0  0  0
    4.4917   -1.5468    0.7904 C   0  0  0  0  0  0  0  0  0  0  0  0
    3.7173   -0.5437   -1.3487 C   0  0  0  0  0  0  0  0  0  0  0  0
    0.8309    1.7642   -0.0094 C   0  0  0  0  0  0  0  0  0  0  0  0
    2.4053    0.0437    2.1095 C   0  0  0  0  0  0  0  0  0  0  0  0
    3.9103   -2.9401    0.9146 C   0  0  0  0  0  0  0  0  0  0  0  0
    1.0838    3.1030    0.2407 C   0  0  0  0  0  0  0  0  0  0  0  0
   -1.4144    2.1202    0.1895 C   0  0  0  0  0  0  0  0  0  0  0  0
   -3.2387    0.3113   -0.0618 C   0  0  0  0  0  0  0  0  0  0  0  0
   -0.0229    3.8970    0.4614 C   0  0  0  0  0  0  0  0  0  0  0  0
   -2.4850   -0.8109    0.2887 C   0  0  0  0  0  0  0  0  0  0  0  0
   -4.5006    0.1471   -0.6369 C   0  0  0  0  0  0  0  0  0  0  0  0
   -2.9909   -2.0914    0.0652 C   0  0  0  0  0  0  0  0  0  0  0  0
   -5.0066   -1.1333   -0.8605 C   0  0  0  0  0  0  0  0  0  0  0  0
   -4.2517   -2.2526   -0.5094 C   0  0  0  0  0  0  0  0  0  0  0  0
   -0.9739   -2.9474    0.9894 C   0  0  0  0  0  0  0  0  0  0  0  0
    5.4472   -1.6161    0.2568 H   0  0  0  0  0  0  0  0  0  0  0  0
    4.7132   -1.1212    1.7736 H   0  0  0  0  0  0  0  0  0  0  0  0
    1.5561    0.6602    2.4218 H   0  0  0  0  0  0  0  0  0  0  0  0
    3.2841    0.4174    2.6444 H   0  0  0  0  0  0  0  0  0  0  0  0
    2.1924   -0.9762    2.4418 H   0  0  0  0  0  0  0  0  0  0  0  0
    4.5940   -3.5889    1.4709 H   0  0  0  0  0  0  0  0  0  0  0  0
    2.9484   -2.9341    1.4358 H   0  0  0  0  0  0  0  0  0  0  0  0
    3.7469   -3.3868   -0.0720 H   0  0  0  0  0  0  0  0  0  0  0  0
    2.0851    3.5158    0.2661 H   0  0  0  0  0  0  0  0  0  0  0  0
   -3.4335    2.3325    0.2087 H   0  0  0  0  0  0  0  0  0  0  0  0
    0.0827    4.9572    0.6655 H   0  0  0  0  0  0  0  0  0  0  0  0
   -1.5358   -0.6602    0.7849 H   0  0  0  0  0  0  0  0  0  0  0  0
   -5.0988    1.0108   -0.9161 H   0  0  0  0  0  0  0  0  0  0  0  0
   -5.9881   -1.2591   -1.3081 H   0  0  0  0  0  0  0  0  0  0  0  0
   -4.6510   -3.2475   -0.6862 H   0  0  0  0  0  0  0  0  0  0  0  0
   -1.0589   -2.4400    1.9564 H   0  0  0  0  0  0  0  0  0  0  0  0
   -0.3052   -2.4207    0.2995 H   0  0  0  0  0  0  0  0  0  0  0  0
   -0.5222   -3.9260    1.1832 H   0  0  0  0  0  0  0  0  0  0  0  0
  1  9  1  0  0  0  0
  1 11  1  0  0  0  0
  2 11  2  0  0  0  0
  3 21  1  0  0  0  0
  3 24  1  0  0  0  0
  4  8  1  0  0  0  0
  4 10  1  0  0  0  0
  4 11  1  0  0  0  0
  5 12  2  0  0  0  0
  5 16  1  0  0  0  0
  6 16  1  0  0  0  0
  6 17  1  0  0  0  0
  6 34  1  0  0  0  0
  7 16  2  0  0  0  0
  7 18  1  0  0  0  0
  8  9  2  0  0  0  0
  8 13  1  0  0  0  0
  9 12  1  0  0  0  0
 10 14  1  0  0  0  0
 10 25  1  0  0  0  0
 10 26  1  0  0  0  0
 12 15  1  0  0  0  0
 13 27  1  0  0  0  0
 13 28  1  0  0  0  0
 13 29  1  0  0  0  0
 14 30  1  0  0  0  0
 14 31  1  0  0  0  0
 14 32  1  0  0  0  0
 15 18  2  0  0  0  0
 15 33  1  0  0  0  0
 17 19  2  0  0  0  0
 17 20  1  0  0  0  0
 18 35  1  0  0  0  0
 19 21  1  0  0  0  0
 19 36  1  0  0  0  0
 20 22  2  0  0  0  0
 20 37  1  0  0  0  0
 21 23  2  0  0  0  0
 22 23  1  0  0  0  0
 22 38  1  0  0  0  0
 23 39  1  0  0  0  0
 24 40  1  0  0  0  0
 24 41  1  0  0  0  0
 24 42  1  0  0  0  0
M  END
> <PUBCHEM_COMPOUND_CID>
11210054

> <PUBCHEM_CONFORMER_RMSD>
0.8

> <PUBCHEM_CONFORMER_DIVERSEORDER>
1
45
75
32
41
112
69
2
135
95
62
67
65
106
33
58
84
9
25
53
70
8
87
46
134
105
29
60
12
133
109
73
24
37
113
18
66
111
28
107
85
61
34
83
104
96
17
22
49
59
7
13
19
21
116
121
42
26
81
5
64
38
35
78
63
72
88
6
31
99
14
51
102
122
23
10
55
76
43
128
15
110
124
74
20
125
16
3
98
89
47
123
57
39
91
27
80
30
114
126
50
68
11
108
36
4
92
56
97
117
119
130
54
77
129
93
132
136
86
40
52
100
101
131
120
90
44
82
103
48
118
115
79
94
127
71

> <PUBCHEM_MMFF94_PARTIAL_CHARGES>
30
1 -0.24
10 0.3
11 0.77
12 0.34
13 0.14
15 -0.15
16 0.72
17 0.1
18 0.16
19 -0.15
2 -0.57
20 -0.15
21 0.08
22 -0.15
23 -0.15
24 0.28
3 -0.36
33 0.15
34 0.4
35 0.15
36 0.15
37 0.15
38 0.15
39 0.15
4 -0.47
5 -0.62
6 -0.6
7 -0.62
8 -0.03
9 0.07

> <PUBCHEM_EFFECTIVE_ROTOR_COUNT>
5

> <PUBCHEM_PHARMACOPHORE_FEATURES>
7
1 3 acceptor
1 5 acceptor
1 6 donor
4 5 6 7 16 cation
5 1 4 8 9 11 rings
6 17 19 20 21 22 23 rings
6 5 7 12 15 16 18 rings

> <PUBCHEM_HEAVY_ATOM_COUNT>
24

> <PUBCHEM_ATOM_DEF_STEREO_COUNT>
0

> <PUBCHEM_ATOM_UDEF_STEREO_COUNT>
0

> <PUBCHEM_BOND_DEF_STEREO_COUNT>
0

> <PUBCHEM_BOND_UDEF_STEREO_COUNT>
0

> <PUBCHEM_ISOTOPIC_ATOM_COUNT>
0

> <PUBCHEM_COMPONENT_COUNT>
1

> <PUBCHEM_CACTVS_TAUTO_COUNT>
3

> <PUBCHEM_CONFORMER_ID>
00AB0D4600000001

> <PUBCHEM_MMFF94_ENERGY>
77.6959

> <PUBCHEM_FEATURE_SELFOVERLAP>
35.522

> <PUBCHEM_SHAPE_FINGERPRINT>
10928967 22 18265628743476158371
12363563 72 18271814548527371861
12553582 1 18338530697734040915
12633257 1 18342188773452414501
12788726 201 18338528430139033956
13533116 47 17984425411178555923
14251757 5 18335150781784118638
14866123 147 18197497325515003889
14931854 50 18333450936818607471
15342168 16 9978703531609817124
15352361 1 18411694396179857771
16752209 62 18261949652993852201
17492 89 18052250993129739183
20403669 9 18343021094811519039
20600515 1 18270669883661188297
20645477 70 18053098712378271941
20775438 99 17477453853538168871
20832881 197 18409163325446150049
23184049 29 18410854403703915777
23559900 14 18269269230712175969
3004659 81 18040710351432775306
314173 41 18338803432526202597
338550 245 18045787788449376063
3680242 22 18409736136491723243
4280585 95 18409166640960832260
463206 1 18335137583513668115
602551 16 18197213655672458616
7970288 3 18411412904176979855
9709674 26 18051129491332087487

> <PUBCHEM_SHAPE_MULTIPOLES>
466.1
9.51
4.38
1.42
2.25
1.72
0.36
-7.73
2.47
0.74
-1.36
-1.86
-0.34
-0.51

> <PUBCHEM_SHAPE_SELFOVERLAP>
986.318

> <PUBCHEM_SHAPE_VOLUME>
264.2

> <PUBCHEM_COORDINATE_TYPE>
2
5
10

$$$$
