49830456
  -OEChem-10062121553D

 30 31  0     0  0  0  0  0  0999 V2000
    0.7751   -2.6593    0.2664 S   0  0  0  0  0  0  0  0  0  0  0  0
   -5.9362   -0.8132    0.0573 O   0  0  0  0  0  0  0  0  0  0  0  0
   -1.1804    0.0381    0.0300 N   0  0  0  0  0  0  0  0  0  0  0  0
    3.4946    0.1539    0.0959 N   0  0  0  0  0  0  0  0  0  0  0  0
   -0.0324    2.1140   -0.1087 N   0  0  0  0  0  0  0  0  0  0  0  0
    2.3955    2.2927   -0.0837 N   0  0  0  0  0  0  0  0  0  0  0  0
    1.2632    0.1325    0.0620 C   0  0  0  0  0  0  0  0  0  0  0  0
   -2.4694    0.6583   -0.0374 C   0  0  0  0  0  0  0  0  0  0  0  0
    0.0232    0.7660   -0.0057 C   0  0  0  0  0  0  0  0  0  0  0  0
   -3.5797   -0.3834    0.0353 C   0  0  0  0  0  0  0  0  0  0  0  0
    2.3844    0.9521    0.0177 C   0  0  0  0  0  0  0  0  0  0  0  0
    1.7308   -1.2022    0.1705 C   0  0  0  0  0  0  0  0  0  0  0  0
    3.1088   -1.1586    0.1891 C   0  0  0  0  0  0  0  0  0  0  0  0
   -4.9737    0.2289   -0.0349 C   0  0  0  0  0  0  0  0  0  0  0  0
    1.1412    2.7846   -0.1409 C   0  0  0  0  0  0  0  0  0  0  0  0
    1.8547   -3.9044   -0.5129 C   0  0  0  0  0  0  0  0  0  0  0  0
   -2.5872    1.3675    0.7908 H   0  0  0  0  0  0  0  0  0  0  0  0
   -2.5646    1.2216   -0.9736 H   0  0  0  0  0  0  0  0  0  0  0  0
   -3.4650   -1.1139   -0.7765 H   0  0  0  0  0  0  0  0  0  0  0  0
   -3.4876   -0.9670    0.9609 H   0  0  0  0  0  0  0  0  0  0  0  0
   -1.1133   -0.9706    0.1062 H   0  0  0  0  0  0  0  0  0  0  0  0
    4.4503    0.4823    0.0874 H   0  0  0  0  0  0  0  0  0  0  0  0
    3.8597   -1.9330    0.2647 H   0  0  0  0  0  0  0  0  0  0  0  0
   -5.1348    0.9266    0.7929 H   0  0  0  0  0  0  0  0  0  0  0  0
   -5.1199    0.7575   -0.9821 H   0  0  0  0  0  0  0  0  0  0  0  0
    1.0620    3.8632   -0.2239 H   0  0  0  0  0  0  0  0  0  0  0  0
    1.2958   -4.8377   -0.6214 H   0  0  0  0  0  0  0  0  0  0  0  0
    2.7309   -4.0981    0.1112 H   0  0  0  0  0  0  0  0  0  0  0  0
    2.1716   -3.5708   -1.5046 H   0  0  0  0  0  0  0  0  0  0  0  0
   -6.8132   -0.3959    0.0101 H   0  0  0  0  0  0  0  0  0  0  0  0
  1 12  1  0  0  0  0
  1 16  1  0  0  0  0
  2 14  1  0  0  0  0
  2 30  1  0  0  0  0
  3  8  1  0  0  0  0
  3  9  1  0  0  0  0
  3 21  1  0  0  0  0
  4 11  1  0  0  0  0
  4 13  1  0  0  0  0
  4 22  1  0  0  0  0
  5  9  2  0  0  0  0
  5 15  1  0  0  0  0
  6 11  1  0  0  0  0
  6 15  2  0  0  0  0
  7  9  1  0  0  0  0
  7 11  2  0  0  0  0
  7 12  1  0  0  0  0
  8 10  1  0  0  0  0
  8 17  1  0  0  0  0
  8 18  1  0  0  0  0
 10 14  1  0  0  0  0
 10 19  1  0  0  0  0
 10 20  1  0  0  0  0
 12 13  2  0  0  0  0
 13 23  1  0  0  0  0
 14 24  1  0  0  0  0
 14 25  1  0  0  0  0
 15 26  1  0  0  0  0
 16 27  1  0  0  0  0
 16 28  1  0  0  0  0
 16 29  1  0  0  0  0
M  END
> <PUBCHEM_COMPOUND_CID>
49830456

> <PUBCHEM_CONFORMER_RMSD>
0.6

> <PUBCHEM_CONFORMER_DIVERSEORDER>
1
38
28
25
43
20
12
17
36
30
33
39
32
23
19
34
24
3
18
31
40
11
6
37
16
29
2
41
4
42
27
14
8
21
35
10
9
15
7
22
5
44
13
26

> <PUBCHEM_MMFF94_PARTIAL_CHARGES>
19
1 -0.28
11 0.11
12 0.05
13 -0.3
14 0.28
15 0.47
16 0.23
2 -0.68
21 0.4
22 0.27
23 0.15
26 0.15
3 -0.87
30 0.4
4 0.03
5 -0.62
6 -0.57
8 0.37
9 0.41

> <PUBCHEM_EFFECTIVE_ROTOR_COUNT>
5

> <PUBCHEM_PHARMACOPHORE_FEATURES>
10
1 16 hydrophobe
1 2 acceptor
1 2 donor
1 3 donor
1 4 cation
1 4 donor
3 3 5 9 cation
3 5 6 15 cation
5 4 7 11 12 13 rings
6 5 6 7 9 11 15 rings

> <PUBCHEM_HEAVY_ATOM_COUNT>
16

> <PUBCHEM_ATOM_DEF_STEREO_COUNT>
0

> <PUBCHEM_ATOM_UDEF_STEREO_COUNT>
0

> <PUBCHEM_BOND_DEF_STEREO_COUNT>
0

> <PUBCHEM_BOND_UDEF_STEREO_COUNT>
0

> <PUBCHEM_ISOTOPIC_ATOM_COUNT>
0

> <PUBCHEM_COMPONENT_COUNT>
1

> <PUBCHEM_CACTVS_TAUTO_COUNT>
9

> <PUBCHEM_CONFORMER_ID>
02F85A3800000001

> <PUBCHEM_MMFF94_ENERGY>
26.7951

> <PUBCHEM_FEATURE_SELFOVERLAP>
50.976

> <PUBCHEM_SHAPE_FINGERPRINT>
10411042 1 18050286964213829338
10967382 1 18410011026930069514
11471102 20 18408602586847283973
116883 192 17834671591539548925
12107183 9 17766570054162245345
12346645 6 18409729603245183029
12553582 1 18339630140605871678
13140716 1 18266730454068544354
13167823 11 18271523195822270967
13836976 161 18334579082924254127
13862211 1 18336827490399915322
14251717 144 18410011048357277347
14252887 29 18131356271548066943
14863182 85 18410580552573821622
15442244 35 18124599682818029049
15477762 27 18410012108955678105
16945 1 18338795590348527596
193761 8 17833550481122569424
20645477 70 18335136505803352307
20871998 22 18196372524439040414
21197605 99 18048607203343270723
221490 88 18262807383769727051
2255824 54 18409731806552836917
22849339 104 16182721199723318215
23530152 11 18194124246651440790
23557571 272 17168139010656933701
23558518 356 17181084956641480104
2748010 2 18192441972649903050
3060560 45 18410858784744196054
33824 294 18408882953564014467
3421961 26 18340204068659199235
59682541 52 18123152825001173117
6443956 14 18264210214482571773
7364860 26 18411419513898740689
8199 65 18409166606210528330
8272917 22 18411705383191465199
9709674 26 18335707113879076651

> <PUBCHEM_SHAPE_MULTIPOLES>
307.33
7.9
3.54
0.63
16.34
1.85
0
2.17
0.12
-3.62
-0.46
-0.07
0.11
0.14

> <PUBCHEM_SHAPE_SELFOVERLAP>
629.946

> <PUBCHEM_SHAPE_VOLUME>
180.5

> <PUBCHEM_COORDINATE_TYPE>
2
5
10

$$$$
