21362748
  -OEChem-10062122043D

 39 42  0     0  0  0  0  0  0999 V2000
    2.6577   -4.5174   -0.2049 Cl  0  0  0  0  0  0  0  0  0  0  0  0
   -1.8479   -2.5991   -0.0460 O   0  0  0  0  0  0  0  0  0  0  0  0
   -6.6342    1.4984    0.1102 O   0  0  0  0  0  0  0  0  0  0  0  0
    1.7738    1.2500    0.0767 N   0  0  0  0  0  0  0  0  0  0  0  0
   -0.6230   -0.5934    0.0278 N   0  0  0  0  0  0  0  0  0  0  0  0
    4.8611    3.2679    0.1211 N   0  0  0  0  0  0  0  0  0  0  0  0
    1.7742   -0.1238    0.0132 C   0  0  0  0  0  0  0  0  0  0  0  0
    3.1069   -0.5356   -0.0256 C   0  0  0  0  0  0  0  0  0  0  0  0
    3.9190    0.6417    0.0167 C   0  0  0  0  0  0  0  0  0  0  0  0
    3.0582    1.7370    0.0796 C   0  0  0  0  0  0  0  0  0  0  0  0
    0.7028   -1.0241   -0.0123 C   0  0  0  0  0  0  0  0  0  0  0  0
    3.3844   -1.9172   -0.0940 C   0  0  0  0  0  0  0  0  0  0  0  0
    1.0033   -2.3872   -0.0797 C   0  0  0  0  0  0  0  0  0  0  0  0
    5.3025    0.8791    0.0071 C   0  0  0  0  0  0  0  0  0  0  0  0
    2.3234   -2.8293   -0.1201 C   0  0  0  0  0  0  0  0  0  0  0  0
    3.5270    3.0433    0.1318 C   0  0  0  0  0  0  0  0  0  0  0  0
    5.6993    2.2086    0.0611 C   0  0  0  0  0  0  0  0  0  0  0  0
   -1.7857   -1.3756    0.0094 C   0  0  0  0  0  0  0  0  0  0  0  0
   -3.0644   -0.6180    0.0350 C   0  0  0  0  0  0  0  0  0  0  0  0
   -4.2112   -1.2035    0.5715 C   0  0  0  0  0  0  0  0  0  0  0  0
   -3.1175    0.6785   -0.4768 C   0  0  0  0  0  0  0  0  0  0  0  0
   -5.4109   -0.4926    0.5963 C   0  0  0  0  0  0  0  0  0  0  0  0
   -4.3173    1.3894   -0.4522 C   0  0  0  0  0  0  0  0  0  0  0  0
   -5.4640    0.8039    0.0843 C   0  0  0  0  0  0  0  0  0  0  0  0
   -6.6177    2.8190   -0.4298 C   0  0  0  0  0  0  0  0  0  0  0  0
    0.9435    1.8248    0.1151 H   0  0  0  0  0  0  0  0  0  0  0  0
    4.4145   -2.2627   -0.1258 H   0  0  0  0  0  0  0  0  0  0  0  0
    0.2416   -3.1552   -0.1040 H   0  0  0  0  0  0  0  0  0  0  0  0
    6.0281    0.0753   -0.0404 H   0  0  0  0  0  0  0  0  0  0  0  0
   -0.7289    0.4126    0.1170 H   0  0  0  0  0  0  0  0  0  0  0  0
    2.8789    3.9085    0.1805 H   0  0  0  0  0  0  0  0  0  0  0  0
    6.7548    2.4638    0.0566 H   0  0  0  0  0  0  0  0  0  0  0  0
   -4.1894   -2.2104    0.9803 H   0  0  0  0  0  0  0  0  0  0  0  0
   -2.2594    1.1595   -0.9370 H   0  0  0  0  0  0  0  0  0  0  0  0
   -6.3006   -0.9532    1.0169 H   0  0  0  0  0  0  0  0  0  0  0  0
   -4.2905    2.3888   -0.8733 H   0  0  0  0  0  0  0  0  0  0  0  0
   -5.9513    3.4776    0.1375 H   0  0  0  0  0  0  0  0  0  0  0  0
   -6.3836    2.8132   -1.4998 H   0  0  0  0  0  0  0  0  0  0  0  0
   -7.6301    3.2231   -0.3265 H   0  0  0  0  0  0  0  0  0  0  0  0
  1 15  1  0  0  0  0
  2 18  2  0  0  0  0
  3 24  1  0  0  0  0
  3 25  1  0  0  0  0
  4  7  1  0  0  0  0
  4 10  1  0  0  0  0
  4 26  1  0  0  0  0
  5 11  1  0  0  0  0
  5 18  1  0  0  0  0
  5 30  1  0  0  0  0
  6 16  2  0  0  0  0
  6 17  1  0  0  0  0
  7  8  2  0  0  0  0
  7 11  1  0  0  0  0
  8  9  1  0  0  0  0
  8 12  1  0  0  0  0
  9 10  2  0  0  0  0
  9 14  1  0  0  0  0
 10 16  1  0  0  0  0
 11 13  2  0  0  0  0
 12 15  2  0  0  0  0
 12 27  1  0  0  0  0
 13 15  1  0  0  0  0
 13 28  1  0  0  0  0
 14 17  2  0  0  0  0
 14 29  1  0  0  0  0
 16 31  1  0  0  0  0
 17 32  1  0  0  0  0
 18 19  1  0  0  0  0
 19 20  2  0  0  0  0
 19 21  1  0  0  0  0
 20 22  1  0  0  0  0
 20 33  1  0  0  0  0
 21 23  2  0  0  0  0
 21 34  1  0  0  0  0
 22 24  2  0  0  0  0
 22 35  1  0  0  0  0
 23 24  1  0  0  0  0
 23 36  1  0  0  0  0
 25 37  1  0  0  0  0
 25 38  1  0  0  0  0
 25 39  1  0  0  0  0
M  END
> <PUBCHEM_COMPOUND_CID>
21362748

> <PUBCHEM_CONFORMER_RMSD>
0.8

> <PUBCHEM_CONFORMER_DIVERSEORDER>
1
2
3
4

> <PUBCHEM_MMFF94_PARTIAL_CHARGES>
34
1 -0.18
10 -0.15
11 0.12
12 -0.15
13 -0.15
14 -0.15
15 0.18
16 0.16
17 0.16
18 0.54
19 0.09
2 -0.57
20 -0.15
21 -0.15
22 -0.15
23 -0.15
24 0.08
25 0.28
26 0.27
27 0.15
28 0.15
29 0.15
3 -0.36
30 0.37
31 0.15
32 0.15
33 0.15
34 0.15
35 0.15
36 0.15
4 0.03
5 -0.55
6 -0.62
7 -0.15

> <PUBCHEM_EFFECTIVE_ROTOR_COUNT>
4

> <PUBCHEM_PHARMACOPHORE_FEATURES>
10
1 2 acceptor
1 3 acceptor
1 4 cation
1 4 donor
1 5 donor
1 6 acceptor
5 4 7 8 9 10 rings
6 19 20 21 22 23 24 rings
6 6 9 10 14 16 17 rings
6 7 8 11 12 13 15 rings

> <PUBCHEM_HEAVY_ATOM_COUNT>
25

> <PUBCHEM_ATOM_DEF_STEREO_COUNT>
0

> <PUBCHEM_ATOM_UDEF_STEREO_COUNT>
0

> <PUBCHEM_BOND_DEF_STEREO_COUNT>
0

> <PUBCHEM_BOND_UDEF_STEREO_COUNT>
0

> <PUBCHEM_ISOTOPIC_ATOM_COUNT>
0

> <PUBCHEM_COMPONENT_COUNT>
1

> <PUBCHEM_CACTVS_TAUTO_COUNT>
4

> <PUBCHEM_CONFORMER_ID>
0145F83C00000001

> <PUBCHEM_MMFF94_ENERGY>
78.104

> <PUBCHEM_FEATURE_SELFOVERLAP>
50.933

> <PUBCHEM_SHAPE_FINGERPRINT>
10050765 1 18410855481846747743
10411042 1 17762900970681023062
10595046 47 18342734122951850671
10835480 77 18336542734210634773
12107183 9 18263350430997757906
12293681 160 17702674392318786560
12730499 353 18409739473222480138
12769317 202 18342733044234577456
12788726 201 17346607326756263761
13402501 40 18408602599574307073
13785724 45 17766001597154369614
138480 1 18194965128624606158
13878862 14 18192691398575727605
13944108 23 18336552608087533340
13955234 65 18337393742808940018
14790565 3 18121502616250020276
15196674 1 18409730655991945539
15320467 1 18410573981248088717
15400415 2 18339079392649165829
15420108 30 18267850839680912418
15475509 35 16443900545152978234
15840311 113 18193281798388278477
16992752 21 17544480752736258450
17844677 252 18340495452589263123
19427546 62 18409730677077067522
20157964 124 18412262809801119519
20715895 44 18411416211327768944
21033648 144 18334006169511668335
21033648 29 18125996303235511264
21065198 57 18337393743177918851
21315764 268 18190739735529779437
21421861 104 17896023387525143994
21859007 373 17242437332009290837
22122407 14 18196946474553098937
23559900 14 18339078168742086467
244849 19 17896344470226411787
245318 6 17462017757696830932
2838139 119 18341326802990340077
335352 9 18411702119570111030
3411729 13 18334574642629930258
34797466 226 18059866051965651751
350125 39 18408603656842650044
38695281 34 18343584079457403846
4073 2 18186527613773738003
474 4 18412266172528657298
5104073 3 18187087235185267643
5385378 56 18411702071602959594
59755656 215 18410579470394517604
60123966 16 18200313199919873303
633830 44 18271241746319997862
636775 72 17549538957163712256
77188 2 17906734701023120166
7808743 9 18266174113768903267
8272917 22 18412827971599778158
9981440 41 18265050417397081506

> <PUBCHEM_SHAPE_MULTIPOLES>
489.68
15.42
4.39
0.66
18.71
1.89
0
-13.5
0.27
-5.17
-0.25
0.23
0.01
1.01

> <PUBCHEM_SHAPE_SELFOVERLAP>
1086.99

> <PUBCHEM_SHAPE_VOLUME>
263.7

> <PUBCHEM_COORDINATE_TYPE>
2
5
10

$$$$
