49830573
  -OEChem-10052120433D

 38 41  0     0  0  0  0  0  0999 V2000
    2.3084    3.2793   -0.3162 O   0  0  0  0  0  0  0  0  0  0  0  0
    1.5018   -0.9693    0.1196 N   0  0  0  0  0  0  0  0  0  0  0  0
    3.4257    1.3561   -0.1452 N   0  0  0  0  0  0  0  0  0  0  0  0
   -5.8565   -0.6491    0.2294 N   0  0  0  0  0  0  0  0  0  0  0  0
    0.5885    0.0847    0.0322 C   0  0  0  0  0  0  0  0  0  0  0  0
    0.8911    1.4397   -0.1070 C   0  0  0  0  0  0  0  0  0  0  0  0
   -1.8189    0.6322    0.0229 C   0  0  0  0  0  0  0  0  0  0  0  0
    2.8932   -1.0608    0.1032 C   0  0  0  0  0  0  0  0  0  0  0  0
   -0.7802   -0.2915    0.0947 C   0  0  0  0  0  0  0  0  0  0  0  0
    3.7744    0.0058   -0.0179 C   0  0  0  0  0  0  0  0  0  0  0  0
   -0.1803    2.3673   -0.1786 C   0  0  0  0  0  0  0  0  0  0  0  0
    2.2419    2.0496   -0.1924 C   0  0  0  0  0  0  0  0  0  0  0  0
   -1.5157    1.9717   -0.1149 C   0  0  0  0  0  0  0  0  0  0  0  0
   -3.1953    0.1953    0.0926 C   0  0  0  0  0  0  0  0  0  0  0  0
    3.4408   -2.3628    0.2218 C   0  0  0  0  0  0  0  0  0  0  0  0
    5.1661   -0.2432   -0.0188 C   0  0  0  0  0  0  0  0  0  0  0  0
   -3.5538   -1.0622   -0.3801 C   0  0  0  0  0  0  0  0  0  0  0  0
   -4.1660    1.0313    0.6335 C   0  0  0  0  0  0  0  0  0  0  0  0
    4.8143   -2.5992    0.2200 C   0  0  0  0  0  0  0  0  0  0  0  0
    5.6833   -1.5308    0.0986 C   0  0  0  0  0  0  0  0  0  0  0  0
   -4.8857   -1.4337   -0.2897 C   0  0  0  0  0  0  0  0  0  0  0  0
   -5.4704    0.5662    0.6787 C   0  0  0  0  0  0  0  0  0  0  0  0
   -5.3067   -2.7765   -0.7864 C   0  0  0  0  0  0  0  0  0  0  0  0
   -0.9993   -1.3498    0.2377 H   0  0  0  0  0  0  0  0  0  0  0  0
    1.0520   -1.8765    0.2157 H   0  0  0  0  0  0  0  0  0  0  0  0
    0.0024    3.4345   -0.2934 H   0  0  0  0  0  0  0  0  0  0  0  0
   -2.2751    2.7430   -0.2050 H   0  0  0  0  0  0  0  0  0  0  0  0
    4.2298    1.9768   -0.2214 H   0  0  0  0  0  0  0  0  0  0  0  0
    2.7775   -3.2220    0.3187 H   0  0  0  0  0  0  0  0  0  0  0  0
    5.8719    0.5812   -0.1130 H   0  0  0  0  0  0  0  0  0  0  0  0
   -2.8453   -1.7444   -0.8388 H   0  0  0  0  0  0  0  0  0  0  0  0
   -3.9504    2.0116    1.0443 H   0  0  0  0  0  0  0  0  0  0  0  0
    5.1953   -3.6112    0.3129 H   0  0  0  0  0  0  0  0  0  0  0  0
    6.7567   -1.6920    0.0948 H   0  0  0  0  0  0  0  0  0  0  0  0
   -6.2639    1.1765    1.0972 H   0  0  0  0  0  0  0  0  0  0  0  0
   -5.0884   -2.8729   -1.8547 H   0  0  0  0  0  0  0  0  0  0  0  0
   -6.3821   -2.9283   -0.6468 H   0  0  0  0  0  0  0  0  0  0  0  0
   -4.7809   -3.5664   -0.2407 H   0  0  0  0  0  0  0  0  0  0  0  0
  1 12  2  0  0  0  0
  2  5  1  0  0  0  0
  2  8  1  0  0  0  0
  2 25  1  0  0  0  0
  3 10  1  0  0  0  0
  3 12  1  0  0  0  0
  3 28  1  0  0  0  0
  4 21  2  0  0  0  0
  4 22  1  0  0  0  0
  5  6  2  0  0  0  0
  5  9  1  0  0  0  0
  6 11  1  0  0  0  0
  6 12  1  0  0  0  0
  7  9  2  0  0  0  0
  7 13  1  0  0  0  0
  7 14  1  0  0  0  0
  8 10  1  0  0  0  0
  8 15  2  0  0  0  0
  9 24  1  0  0  0  0
 10 16  2  0  0  0  0
 11 13  2  0  0  0  0
 11 26  1  0  0  0  0
 13 27  1  0  0  0  0
 14 17  2  0  0  0  0
 14 18  1  0  0  0  0
 15 19  1  0  0  0  0
 15 29  1  0  0  0  0
 16 20  1  0  0  0  0
 16 30  1  0  0  0  0
 17 21  1  0  0  0  0
 17 31  1  0  0  0  0
 18 22  2  0  0  0  0
 18 32  1  0  0  0  0
 19 20  2  0  0  0  0
 19 33  1  0  0  0  0
 20 34  1  0  0  0  0
 21 23  1  0  0  0  0
 22 35  1  0  0  0  0
 23 36  1  0  0  0  0
 23 37  1  0  0  0  0
 23 38  1  0  0  0  0
M  END
> <PUBCHEM_COMPOUND_CID>
49830573

> <PUBCHEM_CONFORMER_RMSD>
0.6

> <PUBCHEM_CONFORMER_DIVERSEORDER>
2
1
3
4

> <PUBCHEM_MMFF94_PARTIAL_CHARGES>
33
1 -0.57
10 0.12
11 -0.15
12 0.54
13 -0.15
15 -0.15
16 -0.15
17 -0.15
18 -0.15
19 -0.15
2 -0.6
20 -0.15
21 0.17
22 0.16
23 0.14
24 0.15
25 0.4
26 0.15
27 0.15
28 0.37
29 0.15
3 -0.55
30 0.15
31 0.15
32 0.15
33 0.15
34 0.15
35 0.15
4 -0.62
5 0.1
6 0.09
8 0.1
9 -0.15

> <PUBCHEM_EFFECTIVE_ROTOR_COUNT>
1.4

> <PUBCHEM_PHARMACOPHORE_FEATURES>
9
1 1 acceptor
1 2 cation
1 2 donor
1 3 donor
1 4 acceptor
6 4 14 17 18 21 22 rings
6 5 6 7 9 11 13 rings
6 8 10 15 16 19 20 rings
7 2 3 5 6 8 10 12 rings

> <PUBCHEM_HEAVY_ATOM_COUNT>
23

> <PUBCHEM_ATOM_DEF_STEREO_COUNT>
0

> <PUBCHEM_ATOM_UDEF_STEREO_COUNT>
0

> <PUBCHEM_BOND_DEF_STEREO_COUNT>
0

> <PUBCHEM_BOND_UDEF_STEREO_COUNT>
0

> <PUBCHEM_ISOTOPIC_ATOM_COUNT>
0

> <PUBCHEM_COMPONENT_COUNT>
1

> <PUBCHEM_CACTVS_TAUTO_COUNT>
7

> <PUBCHEM_CONFORMER_ID>
02F85AAD00000002

> <PUBCHEM_MMFF94_ENERGY>
102.2524

> <PUBCHEM_FEATURE_SELFOVERLAP>
45.684

> <PUBCHEM_SHAPE_FINGERPRINT>
10411042 1 18337108956696500752
10595046 47 18269275823724248245
10622 236 17842819273998784679
11045515 52 18114462258255340900
11578080 2 17058351820988409818
12107183 9 18269283357297677425
12236239 1 18131072640624224841
12403259 226 18336540547523947340
12422481 6 17274822419901776198
12596602 18 17632859741550310306
12839892 36 17704072902142226175
13167823 11 18341895233833571511
13533116 47 18341050821503608889
13544653 18 18261399922622479917
13685833 64 18261398845261104123
138480 1 18409449215344104372
13862211 1 18334856083162454522
13911852 28 18264767662673083730
13955234 65 18196654205680300448
14341114 176 18341898458847452792
14767858 380 18187380822301990862
14955137 171 17775288240334749204
15196674 1 18410855464428423329
15250474 111 18199743803505831751
15352361 1 18409729534630993402
15927050 60 17909831273758826724
17492 89 18266740380228991251
17844677 252 18411706473992092433
17857418 61 18411980265135030487
1813 80 17676206866278106516
18222031 100 18408880716165511314
19141452 34 18341615872075605505
200 152 18342175553073715481
20028762 73 18343579650871738374
20281475 54 18412824707387469381
20645477 70 18188204411517789016
21267235 1 18410019809879662034
221490 88 18262524800332400562
22393880 68 17967798449992607959
22950370 63 18411420591956760899
23402539 116 18410571751958595247
23522609 53 18121533247778031428
23559900 14 18410847768285080441
23622692 118 18200586012628113903
25147074 1 18339380590152973865
2838139 119 7997678792776384546
3004659 81 18187080654625254994
314194 84 18335145275762905522
335352 9 18338234865499623237
3421961 26 18411135853253629648
350125 39 18411140212202498680
4015057 19 18261675986504965433
4073 2 18115312305508250675
4214541 1 18411982438752550593
46194498 28 17313104206424327668
463206 1 18336548308276442154
465052 167 18342462534393873478
5104073 3 18130232657217694337
559249 180 18412824660670291351
67856867 119 18342738571826020657
7495541 125 17989201564381189730
7970288 3 18337667491229356938
9709674 26 18261678168073947603
9981440 41 17473540729729215304

> <PUBCHEM_SHAPE_MULTIPOLES>
452.52
13.87
3.08
0.7
4.95
0.27
0
-9.53
-0.64
-1.18
0.42
0.34
-0.06
-1.25

> <PUBCHEM_SHAPE_SELFOVERLAP>
1013.579

> <PUBCHEM_SHAPE_VOLUME>
235.9

> <PUBCHEM_COORDINATE_TYPE>
2
5
10

$$$$
