49830497
  -OEChem-10062121543D

 45 47  0     1  0  0  0  0  0999 V2000
   -3.6298   -4.6736    0.6577 Cl  0  0  0  0  0  0  0  0  0  0  0  0
   -2.5197    4.3173    0.0116 O   0  0  0  0  0  0  0  0  0  0  0  0
   -1.5282    1.2734    1.9451 O   0  0  0  0  0  0  0  0  0  0  0  0
   -1.7995    1.6038   -0.3336 N   0  0  0  0  0  0  0  0  0  0  0  0
    7.0539   -0.9048   -0.4805 N   0  0  0  0  0  0  0  0  0  0  0  0
   -3.1859    2.0185   -0.2777 C   0  0  2  0  0  0  0  0  0  0  0  0
   -4.0711    1.0684   -1.0991 C   0  0  0  0  0  0  0  0  0  0  0  0
   -3.3228    3.4549   -0.7859 C   0  0  0  0  0  0  0  0  0  0  0  0
   -3.9615   -0.3722   -0.6586 C   0  0  0  0  0  0  0  0  0  0  0  0
   -1.0828    1.2628    0.8005 C   0  0  0  0  0  0  0  0  0  0  0  0
    0.3365    0.8847    0.5774 C   0  0  0  0  0  0  0  0  0  0  0  0
   -3.0042   -1.2066   -1.2359 C   0  0  0  0  0  0  0  0  0  0  0  0
   -4.8167   -0.8682    0.3252 C   0  0  0  0  0  0  0  0  0  0  0  0
    3.0014    0.1745    0.1586 C   0  0  0  0  0  0  0  0  0  0  0  0
    1.2751    1.0687    1.5927 C   0  0  0  0  0  0  0  0  0  0  0  0
    0.7303    0.3457   -0.6474 C   0  0  0  0  0  0  0  0  0  0  0  0
   -2.9024   -2.5370   -0.8295 C   0  0  0  0  0  0  0  0  0  0  0  0
   -4.7152   -2.1986    0.7316 C   0  0  0  0  0  0  0  0  0  0  0  0
    2.6075    0.7136    1.3833 C   0  0  0  0  0  0  0  0  0  0  0  0
    2.0628   -0.0094   -0.8567 C   0  0  0  0  0  0  0  0  0  0  0  0
   -3.7580   -3.0329    0.1543 C   0  0  0  0  0  0  0  0  0  0  0  0
    4.3836   -0.1936   -0.0588 C   0  0  0  0  0  0  0  0  0  0  0  0
    5.1712   -0.6123    1.0079 C   0  0  0  0  0  0  0  0  0  0  0  0
    4.9295   -0.1302   -1.3361 C   0  0  0  0  0  0  0  0  0  0  0  0
    6.4884   -0.9537    0.7466 C   0  0  0  0  0  0  0  0  0  0  0  0
    6.2575   -0.4932   -1.4925 C   0  0  0  0  0  0  0  0  0  0  0  0
   -3.5102    1.9946    0.7701 H   0  0  0  0  0  0  0  0  0  0  0  0
   -5.1198    1.3874   -1.0363 H   0  0  0  0  0  0  0  0  0  0  0  0
   -3.8070    1.1319   -2.1637 H   0  0  0  0  0  0  0  0  0  0  0  0
   -4.3623    3.7926   -0.7217 H   0  0  0  0  0  0  0  0  0  0  0  0
   -2.9860    3.5410   -1.8249 H   0  0  0  0  0  0  0  0  0  0  0  0
   -1.3522    1.6311   -1.2436 H   0  0  0  0  0  0  0  0  0  0  0  0
   -2.3355   -0.8354   -2.0077 H   0  0  0  0  0  0  0  0  0  0  0  0
   -5.5646   -0.2268    0.7838 H   0  0  0  0  0  0  0  0  0  0  0  0
    0.9892    1.4973    2.5497 H   0  0  0  0  0  0  0  0  0  0  0  0
    0.0271    0.1517   -1.4514 H   0  0  0  0  0  0  0  0  0  0  0  0
   -2.1520   -3.1756   -1.2884 H   0  0  0  0  0  0  0  0  0  0  0  0
   -5.3877   -2.5712    1.5000 H   0  0  0  0  0  0  0  0  0  0  0  0
    3.3088    0.9027    2.1915 H   0  0  0  0  0  0  0  0  0  0  0  0
    2.3170   -0.4586   -1.8129 H   0  0  0  0  0  0  0  0  0  0  0  0
   -2.6335    5.2172   -0.3388 H   0  0  0  0  0  0  0  0  0  0  0  0
    4.8017   -0.7119    2.0226 H   0  0  0  0  0  0  0  0  0  0  0  0
    4.3808    0.2140   -2.2060 H   0  0  0  0  0  0  0  0  0  0  0  0
    7.1429   -1.2933    1.5426 H   0  0  0  0  0  0  0  0  0  0  0  0
    6.7332   -0.4547   -2.4670 H   0  0  0  0  0  0  0  0  0  0  0  0
  1 21  1  0  0  0  0
  2  8  1  0  0  0  0
  2 41  1  0  0  0  0
  3 10  2  0  0  0  0
  4  6  1  0  0  0  0
  4 10  1  0  0  0  0
  4 32  1  0  0  0  0
  5 25  2  0  0  0  0
  5 26  1  0  0  0  0
  6  7  1  0  0  0  0
  6  8  1  0  0  0  0
  6 27  1  0  0  0  0
  7  9  1  0  0  0  0
  7 28  1  0  0  0  0
  7 29  1  0  0  0  0
  8 30  1  0  0  0  0
  8 31  1  0  0  0  0
  9 12  2  0  0  0  0
  9 13  1  0  0  0  0
 10 11  1  0  0  0  0
 11 15  2  0  0  0  0
 11 16  1  0  0  0  0
 12 17  1  0  0  0  0
 12 33  1  0  0  0  0
 13 18  2  0  0  0  0
 13 34  1  0  0  0  0
 14 19  2  0  0  0  0
 14 20  1  0  0  0  0
 14 22  1  0  0  0  0
 15 19  1  0  0  0  0
 15 35  1  0  0  0  0
 16 20  2  0  0  0  0
 16 36  1  0  0  0  0
 17 21  2  0  0  0  0
 17 37  1  0  0  0  0
 18 21  1  0  0  0  0
 18 38  1  0  0  0  0
 19 39  1  0  0  0  0
 20 40  1  0  0  0  0
 22 23  2  0  0  0  0
 22 24  1  0  0  0  0
 23 25  1  0  0  0  0
 23 42  1  0  0  0  0
 24 26  2  0  0  0  0
 24 43  1  0  0  0  0
 25 44  1  0  0  0  0
 26 45  1  0  0  0  0
M  END
> <PUBCHEM_COMPOUND_CID>
49830497

> <PUBCHEM_CONFORMER_RMSD>
0.8

> <PUBCHEM_CONFORMER_DIVERSEORDER>
1
20
27
19
21
7
23
32
18
16
15
10
33
2
31
24
22
11
28
26
6
14
3
5
8
9
13
30
25
12
29
4
17

> <PUBCHEM_MMFF94_PARTIAL_CHARGES>
38
1 -0.18
10 0.54
11 0.09
12 -0.15
13 -0.15
15 -0.15
16 -0.15
17 -0.15
18 -0.15
19 -0.15
2 -0.68
20 -0.15
21 0.18
23 -0.15
24 -0.15
25 0.16
26 0.16
3 -0.57
32 0.37
33 0.15
34 0.15
35 0.15
36 0.15
37 0.15
38 0.15
39 0.15
4 -0.73
40 0.15
41 0.4
42 0.15
43 0.15
44 0.15
45 0.15
5 -0.62
6 0.3
7 0.14
8 0.28
9 -0.14

> <PUBCHEM_EFFECTIVE_ROTOR_COUNT>
7

> <PUBCHEM_PHARMACOPHORE_FEATURES>
8
1 2 acceptor
1 2 donor
1 3 acceptor
1 4 donor
1 5 acceptor
6 11 14 15 16 19 20 rings
6 5 22 23 24 25 26 rings
6 9 12 13 17 18 21 rings

> <PUBCHEM_HEAVY_ATOM_COUNT>
26

> <PUBCHEM_ATOM_DEF_STEREO_COUNT>
0

> <PUBCHEM_ATOM_UDEF_STEREO_COUNT>
1

> <PUBCHEM_BOND_DEF_STEREO_COUNT>
0

> <PUBCHEM_BOND_UDEF_STEREO_COUNT>
0

> <PUBCHEM_ISOTOPIC_ATOM_COUNT>
0

> <PUBCHEM_COMPONENT_COUNT>
1

> <PUBCHEM_CACTVS_TAUTO_COUNT>
2

> <PUBCHEM_CONFORMER_ID>
02F85A6100000001

> <PUBCHEM_MMFF94_ENERGY>
74.3874

> <PUBCHEM_FEATURE_SELFOVERLAP>
40.6

> <PUBCHEM_SHAPE_FINGERPRINT>
107951 10 18197775506230569901
11056379 131 18409731729438675909
11135609 12 18272102598856269770
11135609 99 18269830914616284838
11524674 6 17561081393654384447
11796584 16 18410289190714108090
11809386 21 18335414651864157666
12633257 1 16414643807510428735
12788726 201 18187641397572102801
12969540 114 14706924055981793770
13009979 54 18187369891003437565
13257819 37 18043510752410576525
13402501 40 18059859471669819263
13941219 33 16988854864455027135
13994607 96 8502378815350590947
14114206 34 18115846629742157351
14211702 104 18200600190405374566
14251740 79 18260830423039631283
14251751 18 18412543245322040890
14251757 5 18409166623553960299
14251764 30 17825116058791638331
14856354 85 18409735083649970055
14950920 106 14907616890844862555
15183329 4 16153422853455171466
15230672 131 18121218680320768230
15250474 111 18114450164023041898
15361156 5 18059570321570895205
15439362 3 17326605909136034997
16990350 14 16756067061761607736
17844677 252 18410573994285263396
18927931 339 18341893000255392679
20505436 4 17459750307544395633
21307412 95 18266448979873172903
21360442 43 18335707113726401010
23198884 109 16805605875592369715
23379529 103 18194122043317861443
23466295 7 18337959016729681723
23559900 14 18341883134515469232
249057 3 18408600332195682501
4015057 19 17273953870710365969
4058900 60 17622170066320526065
4073 2 18060139795974569736
4409770 3 18335976503033561757
445580 160 18343869905220070318
484985 159 18272375282874053355
5104073 3 16414638138971418610
531348 171 17532643542971297876
5326457 24 18114457856330535226
5372103 7 13325474458880717059
57307002 85 18059587883559981774
59755656 520 18057054505769673889
6371380 46 18273213080769744601
6700243 42 17984176770604819484
70634741 139 18339929311633292432
9862886 166 18412825798303978802

> <PUBCHEM_SHAPE_MULTIPOLES>
515.24
15.24
4.05
1.44
23.68
0.56
-0.16
8.72
2.44
-9.58
-0.32
0.78
-0.12
1.09

> <PUBCHEM_SHAPE_SELFOVERLAP>
1102.939

> <PUBCHEM_SHAPE_VOLUME>
284.3

> <PUBCHEM_COORDINATE_TYPE>
2
5
10

$$$$
