44520205
  -OEChem-10052120443D

 46 49  0     0  0  0  0  0  0999 V2000
   -0.1723   -1.5070    9.9972 F   0  0  0  0  0  0  0  0  0  0  0  0
   -0.7160   -1.2879   -3.5168 O   0  0  0  0  0  0  0  0  0  0  0  0
    0.3271    1.3218    4.0507 O   0  0  0  0  0  0  0  0  0  0  0  0
    0.0102    0.9430   -7.0299 N   0  0  0  0  0  0  0  0  0  0  0  0
   -0.1264    0.7171   -2.4498 N   0  0  0  0  0  0  0  0  0  0  0  0
    0.3035    0.7110   -8.3321 N   0  0  0  0  0  0  0  0  0  0  0  0
    0.7036   -1.5753   -7.6831 N   0  0  0  0  0  0  0  0  0  0  0  0
   -0.2590   -0.6750    2.9741 N   0  0  0  0  0  0  0  0  0  0  0  0
    0.4927   -2.4069   -5.5265 N   0  0  0  0  0  0  0  0  0  0  0  0
   -0.1399   -0.6120    5.2802 N   0  0  0  0  0  0  0  0  0  0  0  0
    0.0489   -0.0199   -6.0549 C   0  0  0  0  0  0  0  0  0  0  0  0
   -0.3050    0.5669   -4.8594 C   0  0  0  0  0  0  0  0  0  0  0  0
   -0.5664    1.9343   -5.1273 C   0  0  0  0  0  0  0  0  0  0  0  0
   -0.3638    2.1392   -6.4754 C   0  0  0  0  0  0  0  0  0  0  0  0
   -0.3934   -0.0808   -3.5819 C   0  0  0  0  0  0  0  0  0  0  0  0
    0.4225   -1.3651   -6.4210 C   0  0  0  0  0  0  0  0  0  0  0  0
   -0.1587    0.3647   -1.0781 C   0  0  0  0  0  0  0  0  0  0  0  0
   -0.2253   -0.3280    1.6232 C   0  0  0  0  0  0  0  0  0  0  0  0
   -0.4921   -0.9358   -0.6997 C   0  0  0  0  0  0  0  0  0  0  0  0
    0.1416    1.3187   -0.1059 C   0  0  0  0  0  0  0  0  0  0  0  0
   -0.5254   -1.2822    0.6510 C   0  0  0  0  0  0  0  0  0  0  0  0
    0.1082    0.9725    1.2448 C   0  0  0  0  0  0  0  0  0  0  0  0
    0.6308   -0.5257   -8.5806 C   0  0  0  0  0  0  0  0  0  0  0  0
    0.0100    0.1378    4.1025 C   0  0  0  0  0  0  0  0  0  0  0  0
    0.0357   -0.1798    6.6159 C   0  0  0  0  0  0  0  0  0  0  0  0
   -0.1586   -1.0740    7.6687 C   0  0  0  0  0  0  0  0  0  0  0  0
    0.4017    1.1400    6.8803 C   0  0  0  0  0  0  0  0  0  0  0  0
    0.0132   -0.6484    8.9859 C   0  0  0  0  0  0  0  0  0  0  0  0
    0.5735    1.5655    8.1974 C   0  0  0  0  0  0  0  0  0  0  0  0
    0.3790    0.6714    9.2504 C   0  0  0  0  0  0  0  0  0  0  0  0
   -0.8761    2.6981   -4.4270 H   0  0  0  0  0  0  0  0  0  0  0  0
   -0.4561    3.0305   -7.0812 H   0  0  0  0  0  0  0  0  0  0  0  0
    0.1358    1.6854   -2.6214 H   0  0  0  0  0  0  0  0  0  0  0  0
   -0.7360   -1.7279   -1.3931 H   0  0  0  0  0  0  0  0  0  0  0  0
    0.4026    2.3355   -0.3886 H   0  0  0  0  0  0  0  0  0  0  0  0
   -0.7868   -2.2992    0.9330 H   0  0  0  0  0  0  0  0  0  0  0  0
    0.3527    1.7669    1.9352 H   0  0  0  0  0  0  0  0  0  0  0  0
    0.8816   -0.7813   -9.6233 H   0  0  0  0  0  0  0  0  0  0  0  0
   -0.5104   -1.6405    3.1711 H   0  0  0  0  0  0  0  0  0  0  0  0
    0.7546   -3.3348   -5.8428 H   0  0  0  0  0  0  0  0  0  0  0  0
    0.3525   -2.2965   -4.5312 H   0  0  0  0  0  0  0  0  0  0  0  0
   -0.4073   -1.5869    5.1697 H   0  0  0  0  0  0  0  0  0  0  0  0
   -0.4440   -2.1051    7.4770 H   0  0  0  0  0  0  0  0  0  0  0  0
    0.5703    1.8914    6.1224 H   0  0  0  0  0  0  0  0  0  0  0  0
    0.8585    2.5930    8.4049 H   0  0  0  0  0  0  0  0  0  0  0  0
    0.5128    1.0024   10.2760 H   0  0  0  0  0  0  0  0  0  0  0  0
  1 28  1  0  0  0  0
  2 15  2  0  0  0  0
  3 24  2  0  0  0  0
  4  6  1  0  0  0  0
  4 11  1  0  0  0  0
  4 14  1  0  0  0  0
  5 15  1  0  0  0  0
  5 17  1  0  0  0  0
  5 33  1  0  0  0  0
  6 23  2  0  0  0  0
  7 16  2  0  0  0  0
  7 23  1  0  0  0  0
  8 18  1  0  0  0  0
  8 24  1  0  0  0  0
  8 39  1  0  0  0  0
  9 16  1  0  0  0  0
  9 40  1  0  0  0  0
  9 41  1  0  0  0  0
 10 24  1  0  0  0  0
 10 25  1  0  0  0  0
 10 42  1  0  0  0  0
 11 12  2  0  0  0  0
 11 16  1  0  0  0  0
 12 13  1  0  0  0  0
 12 15  1  0  0  0  0
 13 14  2  0  0  0  0
 13 31  1  0  0  0  0
 14 32  1  0  0  0  0
 17 19  2  0  0  0  0
 17 20  1  0  0  0  0
 18 21  2  0  0  0  0
 18 22  1  0  0  0  0
 19 21  1  0  0  0  0
 19 34  1  0  0  0  0
 20 22  2  0  0  0  0
 20 35  1  0  0  0  0
 21 36  1  0  0  0  0
 22 37  1  0  0  0  0
 23 38  1  0  0  0  0
 25 26  2  0  0  0  0
 25 27  1  0  0  0  0
 26 28  1  0  0  0  0
 26 43  1  0  0  0  0
 27 29  2  0  0  0  0
 27 44  1  0  0  0  0
 28 30  2  0  0  0  0
 29 30  1  0  0  0  0
 29 45  1  0  0  0  0
 30 46  1  0  0  0  0
M  END
> <PUBCHEM_COMPOUND_CID>
44520205

> <PUBCHEM_CONFORMER_RMSD>
0.8

> <PUBCHEM_CONFORMER_DIVERSEORDER>
1
42
21
41
51
22
66
50
12
33
63
83
23
62
17
6
30
80
31
18
93
86
92
27
4
40
56
43
19
75
67
68
60
52
3
61
34
79
11
65
76
85
15
64
20
37
73
29
59
72
2
88
35
91
55
5
78
32
77
14
8
26
45
38
46
36
57
16
74
39
89
71
7
53
24
49
94
28
13
25
54
58
47
82
69
90
81
70
9
87
10
44
48
84

> <PUBCHEM_MMFF94_PARTIAL_CHARGES>
46
1 -0.19
10 -0.55
11 -0.24
12 -0.09
13 -0.15
14 -0.3
15 0.72
16 0.58
17 0.12
18 0.12
19 -0.15
2 -0.57
20 -0.15
21 -0.15
22 -0.15
23 0.6
24 0.69
25 0.12
26 -0.15
27 -0.15
28 0.19
29 -0.15
3 -0.57
30 -0.15
31 0.15
32 0.15
33 0.37
34 0.15
35 0.15
36 0.15
37 0.15
38 0.06
39 0.37
4 0.51
40 0.4
41 0.4
42 0.37
43 0.15
44 0.15
45 0.15
46 0.15
5 -0.55
6 -0.65
7 -0.66
8 -0.55
9 -0.85

> <PUBCHEM_EFFECTIVE_ROTOR_COUNT>
7

> <PUBCHEM_PHARMACOPHORE_FEATURES>
12
1 10 donor
1 2 acceptor
1 3 acceptor
1 5 donor
1 8 donor
1 9 donor
3 6 7 23 cation
3 7 9 16 cation
5 4 11 12 13 14 rings
6 17 18 19 20 21 22 rings
6 25 26 27 28 29 30 rings
6 4 6 7 11 16 23 rings

> <PUBCHEM_HEAVY_ATOM_COUNT>
30

> <PUBCHEM_ATOM_DEF_STEREO_COUNT>
0

> <PUBCHEM_ATOM_UDEF_STEREO_COUNT>
0

> <PUBCHEM_BOND_DEF_STEREO_COUNT>
0

> <PUBCHEM_BOND_UDEF_STEREO_COUNT>
0

> <PUBCHEM_ISOTOPIC_ATOM_COUNT>
0

> <PUBCHEM_COMPONENT_COUNT>
1

> <PUBCHEM_CACTVS_TAUTO_COUNT>
18

> <PUBCHEM_CONFORMER_ID>
02A7530D00000001

> <PUBCHEM_MMFF94_ENERGY>
94.0894

> <PUBCHEM_FEATURE_SELFOVERLAP>
61.18

> <PUBCHEM_SHAPE_FINGERPRINT>
10050765 1 15462028925885290953
10076449 9 13817113746739695749
10299344 5 15671442013564290401
11135609 127 15740405637943898584
11315181 36 15816403842947665893
12082328 90 15535211509502826804
12089408 11 15817529747012325081
12522641 33 15744908077771926946
12592606 108 15672849431397763777
13885169 127 15746878441210124845
14118638 360 14394989527189200954
14251764 18 15668909812568570201
14251764 46 15742656265040794701
14937079 2 15880586679079310416
15183329 4 15378146110287159135
15247644 1 14607489937121104418
15328684 2 15170130597078482721
15419008 47 14246911678634362457
15461852 350 15676230494167205814
15510794 2 15537750324964721658
15840311 113 15737875558867185440
15849732 13 15462591012851082352
16120349 18 15666940583096378904
1754911 235 15451891476095798720
18681886 176 15314247060120867653
21150785 3 15676792331629027911
21315763 28 15673413493779525089
21360443 120 15305808115231584143
21792934 111 15385459078214839833
21792961 116 12843494507868392864
232437 2 15745471053436389138
24771293 8 15959396378223132520
249057 3 14285207216787491618
335352 9 15812745729075570608
335507 130 15390817114387937862
33684 2 15672849401343249273
395649 100 15666659133863338007
4073 2 15809653868346183387
4325135 7 15670597584508048302
4339292 15 14242120032534998318
54039377 194 15670035815618562774
5758199 1 15449082181074496691
59521660 218 13424163121959246379
6009941 240 14791856712237938155
636775 8 15669191369208469254
67123 10 15744625533273537672
9663363 56 13314689735042042743
99344 41 15817528647611921810

> <PUBCHEM_SHAPE_MULTIPOLES>
563.51
34.85
1.84
0.72
34.62
0.03
-0.01
-1.86
-5.31
-1.76
-0.03
-0.29
-0.02
-1.6

> <PUBCHEM_SHAPE_SELFOVERLAP>
1244.445

> <PUBCHEM_SHAPE_VOLUME>
300

> <PUBCHEM_COORDINATE_TYPE>
2
5
10

$$$$
