24905194
  -OEChem-10052115153D

 39 42  0     0  0  0  0  0  0999 V2000
   -5.0852    0.1701    0.5639 O   0  0  0  0  0  0  0  0  0  0  0  0
    2.3957    1.0356   -0.0337 N   0  0  0  0  0  0  0  0  0  0  0  0
    1.1076    1.4022    0.1008 N   0  0  0  0  0  0  0  0  0  0  0  0
    3.7401   -0.9699   -0.2149 N   0  0  0  0  0  0  0  0  0  0  0  0
    2.3689   -2.9857   -0.1321 N   0  0  0  0  0  0  0  0  0  0  0  0
   -0.0059   -2.9216    0.0993 N   0  0  0  0  0  0  0  0  0  0  0  0
    3.4204    2.0498   -0.1079 C   0  0  0  0  0  0  0  0  0  0  0  0
    0.4538    0.2358    0.1352 C   0  0  0  0  0  0  0  0  0  0  0  0
   -3.1548    0.2278   -0.6959 C   0  0  0  0  0  0  0  0  0  0  0  0
    1.3139   -0.8726    0.0237 C   0  0  0  0  0  0  0  0  0  0  0  0
   -0.9761    0.2226    0.2742 C   0  0  0  0  0  0  0  0  0  0  0  0
    2.5756   -0.3148   -0.0850 C   0  0  0  0  0  0  0  0  0  0  0  0
   -4.2321    0.1768   -1.7078 C   0  0  0  0  0  0  0  0  0  0  0  0
   -3.7136    0.1938    0.5732 C   0  0  0  0  0  0  0  0  0  0  0  0
   -1.7827    0.2371   -0.8669 C   0  0  0  0  0  0  0  0  0  0  0  0
   -5.4249    0.4956   -0.8051 C   0  0  0  0  0  0  0  0  0  0  0  0
   -1.5493    0.1857    1.5565 C   0  0  0  0  0  0  0  0  0  0  0  0
    3.4808    2.8841    1.1740 C   0  0  0  0  0  0  0  0  0  0  0  0
    3.2364    2.9472   -1.3343 C   0  0  0  0  0  0  0  0  0  0  0  0
   -2.9362    0.1657    1.7145 C   0  0  0  0  0  0  0  0  0  0  0  0
    1.2317   -2.2608   -0.0033 C   0  0  0  0  0  0  0  0  0  0  0  0
    3.5359   -2.3049   -0.2285 C   0  0  0  0  0  0  0  0  0  0  0  0
    4.3828    1.5349   -0.2147 H   0  0  0  0  0  0  0  0  0  0  0  0
   -4.1218    0.9096   -2.5110 H   0  0  0  0  0  0  0  0  0  0  0  0
   -4.3120   -0.8316   -2.1261 H   0  0  0  0  0  0  0  0  0  0  0  0
   -1.3542    0.2483   -1.8646 H   0  0  0  0  0  0  0  0  0  0  0  0
   -5.6736    1.5640   -0.8419 H   0  0  0  0  0  0  0  0  0  0  0  0
   -6.3158   -0.0682   -1.1008 H   0  0  0  0  0  0  0  0  0  0  0  0
   -0.9192    0.1684    2.4433 H   0  0  0  0  0  0  0  0  0  0  0  0
    2.5610    3.4596    1.3269 H   0  0  0  0  0  0  0  0  0  0  0  0
    4.3168    3.5905    1.1363 H   0  0  0  0  0  0  0  0  0  0  0  0
    3.6208    2.2419    2.0507 H   0  0  0  0  0  0  0  0  0  0  0  0
    2.3073    3.5252   -1.2780 H   0  0  0  0  0  0  0  0  0  0  0  0
    3.2016    2.3502   -2.2523 H   0  0  0  0  0  0  0  0  0  0  0  0
    4.0674    3.6550   -1.4233 H   0  0  0  0  0  0  0  0  0  0  0  0
   -3.3820    0.1327    2.7022 H   0  0  0  0  0  0  0  0  0  0  0  0
    4.4265   -2.9156   -0.3308 H   0  0  0  0  0  0  0  0  0  0  0  0
   -0.8696   -2.4085    0.1966 H   0  0  0  0  0  0  0  0  0  0  0  0
   -0.0206   -3.9324    0.0755 H   0  0  0  0  0  0  0  0  0  0  0  0
  1 14  1  0  0  0  0
  1 16  1  0  0  0  0
  2  3  1  0  0  0  0
  2  7  1  0  0  0  0
  2 12  1  0  0  0  0
  3  8  2  0  0  0  0
  4 12  2  0  0  0  0
  4 22  1  0  0  0  0
  5 21  1  0  0  0  0
  5 22  2  0  0  0  0
  6 21  1  0  0  0  0
  6 38  1  0  0  0  0
  6 39  1  0  0  0  0
  7 18  1  0  0  0  0
  7 19  1  0  0  0  0
  7 23  1  0  0  0  0
  8 10  1  0  0  0  0
  8 11  1  0  0  0  0
  9 13  1  0  0  0  0
  9 14  2  0  0  0  0
  9 15  1  0  0  0  0
 10 12  1  0  0  0  0
 10 21  2  0  0  0  0
 11 15  2  0  0  0  0
 11 17  1  0  0  0  0
 13 16  1  0  0  0  0
 13 24  1  0  0  0  0
 13 25  1  0  0  0  0
 14 20  1  0  0  0  0
 15 26  1  0  0  0  0
 16 27  1  0  0  0  0
 16 28  1  0  0  0  0
 17 20  2  0  0  0  0
 17 29  1  0  0  0  0
 18 30  1  0  0  0  0
 18 31  1  0  0  0  0
 18 32  1  0  0  0  0
 19 33  1  0  0  0  0
 19 34  1  0  0  0  0
 19 35  1  0  0  0  0
 20 36  1  0  0  0  0
 22 37  1  0  0  0  0
M  END
> <PUBCHEM_COMPOUND_CID>
24905194

> <PUBCHEM_CONFORMER_RMSD>
0.6

> <PUBCHEM_CONFORMER_DIVERSEORDER>
2
5
4
3
6
1

> <PUBCHEM_MMFF94_PARTIAL_CHARGES>
25
1 -0.36
11 0.05
12 0.11
13 0.14
14 0.08
15 -0.15
16 0.28
17 -0.15
2 0.31
20 -0.15
21 0.41
22 0.47
26 0.15
29 0.15
3 -0.71
36 0.15
37 0.15
38 0.4
39 0.4
4 -0.57
5 -0.62
6 -0.9
7 0.26
8 0.23
9 -0.14

> <PUBCHEM_EFFECTIVE_ROTOR_COUNT>
2.6

> <PUBCHEM_PHARMACOPHORE_FEATURES>
11
1 1 acceptor
1 3 acceptor
1 6 cation
1 6 donor
3 2 4 12 cation
3 4 5 22 cation
3 7 18 19 hydrophobe
5 1 9 13 14 16 rings
5 2 3 8 10 12 rings
6 4 5 10 12 21 22 rings
6 9 11 14 15 17 20 rings

> <PUBCHEM_HEAVY_ATOM_COUNT>
22

> <PUBCHEM_ATOM_DEF_STEREO_COUNT>
0

> <PUBCHEM_ATOM_UDEF_STEREO_COUNT>
0

> <PUBCHEM_BOND_DEF_STEREO_COUNT>
0

> <PUBCHEM_BOND_UDEF_STEREO_COUNT>
0

> <PUBCHEM_ISOTOPIC_ATOM_COUNT>
0

> <PUBCHEM_COMPONENT_COUNT>
1

> <PUBCHEM_CACTVS_TAUTO_COUNT>
5

> <PUBCHEM_CONFORMER_ID>
017C05EA00000002

> <PUBCHEM_MMFF94_ENERGY>
57.0234

> <PUBCHEM_FEATURE_SELFOVERLAP>
56.203

> <PUBCHEM_SHAPE_FINGERPRINT>
10366900 7 17896047554678435391
11471102 20 18409731733749226974
11582403 64 17390749544329859881
11725454 13 17605529223841890389
12236239 1 17704070660063516035
12403259 415 17894919524989806561
12616971 3 18060703862524555345
12730499 353 18336835285422211497
12788726 201 16748178074262980514
13009979 54 17344636932962474042
13134695 92 18189618237742946830
13140716 1 18338796836057952850
13533116 47 18342461435230041441
13631057 29 17769643532395655727
13911987 19 18120102928999770173
13955234 65 18411698781399606682
15342168 16 18262522635795984333
15375358 24 17821725061624923277
15842332 3 17703242710664796897
15961568 22 16733553834947527116
16752209 62 16487252132883978805
16945 1 18410863122972498522
17134986 127 18118414062576334876
17138139 8 17556830819114352751
17818456 19 17271175211220911305
1813 80 17914347775167514766
18186145 218 18340215166849138092
18222031 100 18199185084300833846
19784866 34 18199462345281553128
200 152 18200590294420143051
204376 136 18265054810974265408
20645477 70 18335138678624274475
21065201 7 16587748620606559547
21120745 212 11014163740838718834
2255824 54 18342179934156836542
23557571 272 17240779388643770499
23559900 14 16660648427545278674
23598291 2 17917444072472075393
2748010 2 18193573374536647202
283562 15 17832994837252111674
312423 11 18059025994558343177
4340502 62 18341888657753169243
469060 322 17758684734229533555
474 4 18271240629348958200
495365 180 18408316700685842536
5104073 3 18408888447354597059
5281201 14 18260828151123043117
6034566 193 17828493800775926332
633830 44 18057912232097203521
7471813 234 18059569127469409320
7615 1 17917436371738067385
77492 1 17703793587444004227
8272917 22 18412268302826907949
84936 182 18202562908216685312

> <PUBCHEM_SHAPE_MULTIPOLES>
421.98
9.46
3
1.28
8.81
0.7
0.12
-3.08
-1.55
-5.73
-0.23
1.06
-0.54
0.21

> <PUBCHEM_SHAPE_SELFOVERLAP>
941.115

> <PUBCHEM_SHAPE_VOLUME>
225.7

> <PUBCHEM_COORDINATE_TYPE>
2
5
10

$$$$
