11417587
  -OEChem-10062121523D

 47 51  0     0  0  0  0  0  0999 V2000
    2.4194   -4.2302    0.8321 F   0  0  0  0  0  0  0  0  0  0  0  0
   -5.1760   -0.1959   -1.2214 O   0  0  0  0  0  0  0  0  0  0  0  0
    5.1456    1.2134   -1.7566 N   0  0  0  0  0  0  0  0  0  0  0  0
    2.4093    1.5755    0.6729 N   0  0  0  0  0  0  0  0  0  0  0  0
   -3.3305    0.6712   -0.3373 N   0  0  0  0  0  0  0  0  0  0  0  0
    0.1571    0.9819    0.3865 N   0  0  0  0  0  0  0  0  0  0  0  0
    0.7683    2.9656    1.6107 N   0  0  0  0  0  0  0  0  0  0  0  0
   -3.1877   -1.5195   -0.7365 N   0  0  0  0  0  0  0  0  0  0  0  0
    2.8770    0.4215   -0.0691 C   0  0  0  0  0  0  0  0  0  0  0  0
    2.7390    0.6646   -1.5740 C   0  0  0  0  0  0  0  0  0  0  0  0
    4.3293    0.1156    0.3027 C   0  0  0  0  0  0  0  0  0  0  0  0
    3.7915    1.6356   -2.1130 C   0  0  0  0  0  0  0  0  0  0  0  0
    5.3104    1.1184   -0.3066 C   0  0  0  0  0  0  0  0  0  0  0  0
    1.0727    1.8488    0.8964 C   0  0  0  0  0  0  0  0  0  0  0  0
   -2.0811    0.3442    0.0717 C   0  0  0  0  0  0  0  0  0  0  0  0
   -1.1373    1.2790    0.6240 C   0  0  0  0  0  0  0  0  0  0  0  0
   -2.0131   -1.0225   -0.1855 C   0  0  0  0  0  0  0  0  0  0  0  0
   -3.9331   -0.4530   -0.8000 C   0  0  0  0  0  0  0  0  0  0  0  0
   -1.5516    2.3857    1.3368 C   0  0  0  0  0  0  0  0  0  0  0  0
   -0.8716   -1.8489    0.0766 C   0  0  0  0  0  0  0  0  0  0  0  0
   -0.5450    3.2018    1.8107 C   0  0  0  0  0  0  0  0  0  0  0  0
   -4.1988    1.7242   -0.4508 C   0  0  0  0  0  0  0  0  0  0  0  0
   -5.3125    1.1979   -0.9850 C   0  0  0  0  0  0  0  0  0  0  0  0
   -0.7348   -2.4820    1.3132 C   0  0  0  0  0  0  0  0  0  0  0  0
    0.1068   -2.0226   -0.9043 C   0  0  0  0  0  0  0  0  0  0  0  0
    0.3763   -3.2858    1.5683 C   0  0  0  0  0  0  0  0  0  0  0  0
    1.2179   -2.8265   -0.6494 C   0  0  0  0  0  0  0  0  0  0  0  0
    1.3526   -3.4582    0.5870 C   0  0  0  0  0  0  0  0  0  0  0  0
    2.2848   -0.4471    0.2280 H   0  0  0  0  0  0  0  0  0  0  0  0
    1.7405    1.0339   -1.8339 H   0  0  0  0  0  0  0  0  0  0  0  0
    2.8580   -0.2958   -2.0932 H   0  0  0  0  0  0  0  0  0  0  0  0
    4.5828   -0.8898   -0.0591 H   0  0  0  0  0  0  0  0  0  0  0  0
    4.4531    0.0996    1.3925 H   0  0  0  0  0  0  0  0  0  0  0  0
    3.7112    1.6780   -3.2048 H   0  0  0  0  0  0  0  0  0  0  0  0
    3.6020    2.6498   -1.7408 H   0  0  0  0  0  0  0  0  0  0  0  0
    5.1943    2.1068    0.1535 H   0  0  0  0  0  0  0  0  0  0  0  0
    6.3329    0.7890   -0.0906 H   0  0  0  0  0  0  0  0  0  0  0  0
    5.8159    1.8861   -2.1278 H   0  0  0  0  0  0  0  0  0  0  0  0
    3.0786    2.2499    1.0249 H   0  0  0  0  0  0  0  0  0  0  0  0
   -2.5819    2.6128    1.5714 H   0  0  0  0  0  0  0  0  0  0  0  0
   -0.7726    4.0896    2.3910 H   0  0  0  0  0  0  0  0  0  0  0  0
   -3.9865    2.7421   -0.1764 H   0  0  0  0  0  0  0  0  0  0  0  0
   -6.2527    1.6351   -1.2615 H   0  0  0  0  0  0  0  0  0  0  0  0
   -1.4865   -2.3580    2.0892 H   0  0  0  0  0  0  0  0  0  0  0  0
    0.0180   -1.5362   -1.8730 H   0  0  0  0  0  0  0  0  0  0  0  0
    0.4819   -3.7775    2.5308 H   0  0  0  0  0  0  0  0  0  0  0  0
    1.9790   -2.9593   -1.4125 H   0  0  0  0  0  0  0  0  0  0  0  0
  1 28  1  0  0  0  0
  2 18  1  0  0  0  0
  2 23  1  0  0  0  0
  3 12  1  0  0  0  0
  3 13  1  0  0  0  0
  3 38  1  0  0  0  0
  4  9  1  0  0  0  0
  4 14  1  0  0  0  0
  4 39  1  0  0  0  0
  5 15  1  0  0  0  0
  5 18  1  0  0  0  0
  5 22  1  0  0  0  0
  6 14  1  0  0  0  0
  6 16  2  0  0  0  0
  7 14  2  0  0  0  0
  7 21  1  0  0  0  0
  8 17  1  0  0  0  0
  8 18  2  0  0  0  0
  9 10  1  0  0  0  0
  9 11  1  0  0  0  0
  9 29  1  0  0  0  0
 10 12  1  0  0  0  0
 10 30  1  0  0  0  0
 10 31  1  0  0  0  0
 11 13  1  0  0  0  0
 11 32  1  0  0  0  0
 11 33  1  0  0  0  0
 12 34  1  0  0  0  0
 12 35  1  0  0  0  0
 13 36  1  0  0  0  0
 13 37  1  0  0  0  0
 15 16  1  0  0  0  0
 15 17  2  0  0  0  0
 16 19  1  0  0  0  0
 17 20  1  0  0  0  0
 19 21  2  0  0  0  0
 19 40  1  0  0  0  0
 20 24  2  0  0  0  0
 20 25  1  0  0  0  0
 21 41  1  0  0  0  0
 22 23  2  0  0  0  0
 22 42  1  0  0  0  0
 23 43  1  0  0  0  0
 24 26  1  0  0  0  0
 24 44  1  0  0  0  0
 25 27  2  0  0  0  0
 25 45  1  0  0  0  0
 26 28  2  0  0  0  0
 26 46  1  0  0  0  0
 27 28  1  0  0  0  0
 27 47  1  0  0  0  0
M  END
> <PUBCHEM_COMPOUND_CID>
11417587

> <PUBCHEM_CONFORMER_RMSD>
0.8

> <PUBCHEM_CONFORMER_DIVERSEORDER>
1
32
60
63
3
37
27
39
50
14
34
38
24
48
20
7
47
16
64
45
57
2
33
43
28
9
15
41
21
62
58
35
12
53
40
19
10
36
46
29
26
6
54
56
18
30
13
17
55
49
52
23
42
25
22
5
8
59
51
4
31
11
61
44

> <PUBCHEM_MMFF94_PARTIAL_CHARGES>
36
1 -0.19
12 0.27
13 0.27
14 0.72
15 -0.2
16 0.36
17 0.17
18 0.25
19 -0.15
2 -0.14
20 0.05
21 0.16
22 -0.18
23 -0.07
24 -0.15
25 -0.15
26 -0.15
27 -0.15
28 0.19
3 -0.9
38 0.36
39 0.4
4 -0.87
40 0.15
41 0.15
42 0.15
43 0.15
44 0.15
45 0.15
46 0.15
47 0.15
5 0.33
6 -0.62
7 -0.62
8 -0.57
9 0.37

> <PUBCHEM_EFFECTIVE_ROTOR_COUNT>
5.2

> <PUBCHEM_PHARMACOPHORE_FEATURES>
11
1 3 cation
1 3 donor
1 4 donor
1 6 acceptor
3 5 8 18 cation
4 4 6 7 14 cation
5 2 5 18 22 23 rings
5 5 8 15 17 18 rings
6 20 24 25 26 27 28 rings
6 3 9 10 11 12 13 rings
6 6 7 14 16 19 21 rings

> <PUBCHEM_HEAVY_ATOM_COUNT>
28

> <PUBCHEM_ATOM_DEF_STEREO_COUNT>
0

> <PUBCHEM_ATOM_UDEF_STEREO_COUNT>
0

> <PUBCHEM_BOND_DEF_STEREO_COUNT>
0

> <PUBCHEM_BOND_UDEF_STEREO_COUNT>
0

> <PUBCHEM_ISOTOPIC_ATOM_COUNT>
0

> <PUBCHEM_COMPONENT_COUNT>
1

> <PUBCHEM_CACTVS_TAUTO_COUNT>
3

> <PUBCHEM_CONFORMER_ID>
00AE37F300000001

> <PUBCHEM_MMFF94_ENERGY>
87.6585

> <PUBCHEM_FEATURE_SELFOVERLAP>
56.199

> <PUBCHEM_SHAPE_FINGERPRINT>
10006869 2 17696225541815935161
10675989 125 18413385432200548993
107951 10 17386006225360875346
10906281 52 17915756451305189976
11370993 70 18259988205780205038
11513181 2 17627510437335919846
11578080 2 17170992204576320065
12035759 4 18199750254377235849
12156800 1 14111548550995266586
12363563 72 17559974253853817700
12553582 1 18129117739104903440
12788726 201 18201165390472954224
13140716 1 18198625621670661089
13149001 5 18126002916967999944
133893 2 17973455308030555874
14114211 68 18189920680380556479
14725015 67 17835789077785547514
14931854 50 18342176643884821348
15420108 30 17044304065310503200
16752209 62 18265331896847885978
17909252 39 17416980426241807942
19319366 153 18335978697203479543
19591789 44 18052528065922895627
20642791 13 17775290443453402432
20642791 178 18051129186347302633
20775438 99 16617834849172666974
20905425 154 18057036917593233309
21421861 104 18053393093341453689
22393880 68 18129646613161948597
23419403 2 17534940431621013923
23559900 14 17770211666195404535
25147074 1 17984142561379982585
3004659 81 18335979792846595796
3298306 158 18410848889039403463
4409770 3 18048056330547104782
474 4 18186518778530196095
513532 50 17202457001531482625
5265222 85 18191031303373972980
6138700 20 18341325613806644866
6669772 16 18055049202470860728
7226269 152 18342178903649509048
7471813 234 17981586196666178543
9709674 26 17767957997812072905
9981440 41 18261396688755433714

> <PUBCHEM_SHAPE_MULTIPOLES>
533.2
9.11
4.44
1.66
0.06
3.49
-0.07
-4.75
-5.75
-1.62
2.4
-0.69
-0.64
-1.1

> <PUBCHEM_SHAPE_SELFOVERLAP>
1188.113

> <PUBCHEM_SHAPE_VOLUME>
284.1

> <PUBCHEM_COORDINATE_TYPE>
2
5
10

$$$$
