10940039
  -OEChem-10052120443D

 66 72  0     1  0  0  0  0  0999 V2000
   -3.5107    1.7551    2.7476 O   0  0  0  0  0  0  0  0  0  0  0  0
   -3.8544   -2.7682    2.1328 O   0  0  0  0  0  0  0  0  0  0  0  0
    3.1474    2.2732    0.9478 N   0  0  2  0  0  0  0  0  0  0  0  0
   -0.0511    2.5318   -0.1847 N   0  0  0  0  0  0  0  0  0  0  0  0
   -3.9285   -0.5296    2.7472 N   0  0  0  0  0  0  0  0  0  0  0  0
   -1.6848   -3.0235   -1.9144 N   0  0  0  0  0  0  0  0  0  0  0  0
    1.2640    3.1660   -0.1809 C   0  0  1  0  0  0  0  0  0  0  0  0
    1.5588    3.9572    1.1008 C   0  0  0  0  0  0  0  0  0  0  0  0
    2.4463    2.1948   -0.3378 C   0  0  0  0  0  0  0  0  0  0  0  0
    3.0222    3.6624    1.3859 C   0  0  0  0  0  0  0  0  0  0  0  0
   -1.0606    2.7756   -1.0934 C   0  0  0  0  0  0  0  0  0  0  0  0
    4.5332    1.8390    0.8561 C   0  0  0  0  0  0  0  0  0  0  0  0
   -0.4635    1.5935    0.7277 C   0  0  0  0  0  0  0  0  0  0  0  0
   -1.7504    1.2248    0.4100 C   0  0  0  0  0  0  0  0  0  0  0  0
   -2.1416    1.9649   -0.7406 C   0  0  0  0  0  0  0  0  0  0  0  0
   -2.5169    0.2627    1.1391 C   0  0  0  0  0  0  0  0  0  0  0  0
    4.6435    0.4072    0.4040 C   0  0  0  0  0  0  0  0  0  0  0  0
   -1.0946    3.6451   -2.1894 C   0  0  0  0  0  0  0  0  0  0  0  0
   -3.3151    2.0231   -1.5183 C   0  0  0  0  0  0  0  0  0  0  0  0
   -2.6089   -1.0687    0.9656 C   0  0  0  0  0  0  0  0  0  0  0  0
   -2.2692    3.6859   -2.9461 C   0  0  0  0  0  0  0  0  0  0  0  0
   -3.3686    0.6300    2.2992 C   0  0  0  0  0  0  0  0  0  0  0  0
   -3.3635    2.8882   -2.6175 C   0  0  0  0  0  0  0  0  0  0  0  0
   -1.9944   -1.9027   -0.0201 C   0  0  0  0  0  0  0  0  0  0  0  0
    4.6546   -0.6090    1.3493 C   0  0  0  0  0  0  0  0  0  0  0  0
    4.7323    0.1235   -0.9518 C   0  0  0  0  0  0  0  0  0  0  0  0
   -3.5289   -1.6001    2.0035 C   0  0  0  0  0  0  0  0  0  0  0  0
   -0.7343   -2.5643    0.0510 C   0  0  0  0  0  0  0  0  0  0  0  0
   -2.5532   -2.2060   -1.2422 C   0  0  0  0  0  0  0  0  0  0  0  0
   -0.5653   -3.2591   -1.1485 C   0  0  0  0  0  0  0  0  0  0  0  0
    4.7567   -1.9356    0.9306 C   0  0  0  0  0  0  0  0  0  0  0  0
    4.8342   -1.2032   -1.3704 C   0  0  0  0  0  0  0  0  0  0  0  0
    0.2805   -2.6372    1.0258 C   0  0  0  0  0  0  0  0  0  0  0  0
    4.8464   -2.2326   -0.4292 C   0  0  0  0  0  0  0  0  0  0  0  0
    0.5725   -4.0263   -1.4231 C   0  0  0  0  0  0  0  0  0  0  0  0
   -1.9242   -3.5535   -3.2394 C   0  0  0  0  0  0  0  0  0  0  0  0
    1.4242   -3.4008    0.7649 C   0  0  0  0  0  0  0  0  0  0  0  0
    1.5658   -4.0838   -0.4413 C   0  0  0  0  0  0  0  0  0  0  0  0
    1.2977    3.8663   -1.0218 H   0  0  0  0  0  0  0  0  0  0  0  0
    0.9376    3.6304    1.9432 H   0  0  0  0  0  0  0  0  0  0  0  0
    1.3829    5.0292    0.9619 H   0  0  0  0  0  0  0  0  0  0  0  0
    2.1147    1.1772   -0.5692 H   0  0  0  0  0  0  0  0  0  0  0  0
    3.0754    2.5570   -1.1615 H   0  0  0  0  0  0  0  0  0  0  0  0
    3.6635    4.3350    0.8021 H   0  0  0  0  0  0  0  0  0  0  0  0
    3.2566    3.7842    2.4479 H   0  0  0  0  0  0  0  0  0  0  0  0
    5.0155    1.9364    1.8380 H   0  0  0  0  0  0  0  0  0  0  0  0
    5.1139    2.4813    0.1792 H   0  0  0  0  0  0  0  0  0  0  0  0
    0.1920    1.2629    1.5233 H   0  0  0  0  0  0  0  0  0  0  0  0
   -0.2543    4.2736   -2.4617 H   0  0  0  0  0  0  0  0  0  0  0  0
   -4.1769    1.4076   -1.2763 H   0  0  0  0  0  0  0  0  0  0  0  0
   -2.3287    4.3505   -3.8042 H   0  0  0  0  0  0  0  0  0  0  0  0
   -4.2660    2.9370   -3.2211 H   0  0  0  0  0  0  0  0  0  0  0  0
    4.5831   -0.3892    2.4108 H   0  0  0  0  0  0  0  0  0  0  0  0
    4.7384    0.9137   -1.6968 H   0  0  0  0  0  0  0  0  0  0  0  0
   -4.5636   -0.5884    3.5350 H   0  0  0  0  0  0  0  0  0  0  0  0
   -3.4943   -1.9061   -1.6855 H   0  0  0  0  0  0  0  0  0  0  0  0
    4.7685   -2.7370    1.6635 H   0  0  0  0  0  0  0  0  0  0  0  0
    4.9071   -1.4348   -2.4290 H   0  0  0  0  0  0  0  0  0  0  0  0
    0.1853   -2.1123    1.9721 H   0  0  0  0  0  0  0  0  0  0  0  0
    4.9279   -3.2653   -0.7552 H   0  0  0  0  0  0  0  0  0  0  0  0
    0.6886   -4.5610   -2.3599 H   0  0  0  0  0  0  0  0  0  0  0  0
   -1.9264   -4.6447   -3.1790 H   0  0  0  0  0  0  0  0  0  0  0  0
   -2.8914   -3.2013   -3.6071 H   0  0  0  0  0  0  0  0  0  0  0  0
   -1.1273   -3.2027   -3.9001 H   0  0  0  0  0  0  0  0  0  0  0  0
    2.2027   -3.4698    1.5191 H   0  0  0  0  0  0  0  0  0  0  0  0
    2.4603   -4.6744   -0.6214 H   0  0  0  0  0  0  0  0  0  0  0  0
  1 22  2  0  0  0  0
  2 27  2  0  0  0  0
  3  9  1  0  0  0  0
  3 10  1  0  0  0  0
  3 12  1  0  0  0  0
  4  7  1  0  0  0  0
  4 11  1  0  0  0  0
  4 13  1  0  0  0  0
  5 22  1  0  0  0  0
  5 27  1  0  0  0  0
  5 55  1  0  0  0  0
  6 29  1  0  0  0  0
  6 30  1  0  0  0  0
  6 36  1  0  0  0  0
  7  8  1  0  0  0  0
  7  9  1  0  0  0  0
  7 39  1  0  0  0  0
  8 10  1  0  0  0  0
  8 40  1  0  0  0  0
  8 41  1  0  0  0  0
  9 42  1  0  0  0  0
  9 43  1  0  0  0  0
 10 44  1  0  0  0  0
 10 45  1  0  0  0  0
 11 15  1  0  0  0  0
 11 18  2  0  0  0  0
 12 17  1  0  0  0  0
 12 46  1  0  0  0  0
 12 47  1  0  0  0  0
 13 14  2  0  0  0  0
 13 48  1  0  0  0  0
 14 15  1  0  0  0  0
 14 16  1  0  0  0  0
 15 19  2  0  0  0  0
 16 20  2  0  0  0  0
 16 22  1  0  0  0  0
 17 25  2  0  0  0  0
 17 26  1  0  0  0  0
 18 21  1  0  0  0  0
 18 49  1  0  0  0  0
 19 23  1  0  0  0  0
 19 50  1  0  0  0  0
 20 24  1  0  0  0  0
 20 27  1  0  0  0  0
 21 23  2  0  0  0  0
 21 51  1  0  0  0  0
 23 52  1  0  0  0  0
 24 28  1  0  0  0  0
 24 29  2  0  0  0  0
 25 31  1  0  0  0  0
 25 53  1  0  0  0  0
 26 32  2  0  0  0  0
 26 54  1  0  0  0  0
 28 30  1  0  0  0  0
 28 33  2  0  0  0  0
 29 56  1  0  0  0  0
 30 35  2  0  0  0  0
 31 34  2  0  0  0  0
 31 57  1  0  0  0  0
 32 34  1  0  0  0  0
 32 58  1  0  0  0  0
 33 37  1  0  0  0  0
 33 59  1  0  0  0  0
 34 60  1  0  0  0  0
 35 38  1  0  0  0  0
 35 61  1  0  0  0  0
 36 62  1  0  0  0  0
 36 63  1  0  0  0  0
 36 64  1  0  0  0  0
 37 38  2  0  0  0  0
 37 65  1  0  0  0  0
 38 66  1  0  0  0  0
M  END
> <PUBCHEM_COMPOUND_CID>
10940039

> <PUBCHEM_CONFORMER_RMSD>
1

> <PUBCHEM_CONFORMER_DIVERSEORDER>
1
220
64
210
114
213
12
138
178
163
223
25
37
177
120
222
92
171
17
89
58
110
216
196
51
104
172
29
121
5
142
191
94
217
52
45
85
170
75
186
119
135
34
168
189
91
187
151
80
71
214
139
47
20
149
55
153
76
201
77
73
146
10
42
41
157
207
156
106
190
209
204
70
182
132
117
57
63
165
82
147
198
150
128
215
21
202
60
123
19
36
35
192
15
97
211
79
219
54
32
9
98
193
194
118
96
148
126
197
23
161
112
46
7
183
28
137
59
195
83
50
162
141
13
152
74
122
125
158
81
49
180
68
164
38
174
221
131
134
8
208
169
101
116
53
166
205
206
61
26
11
199
107
66
86
129
159
99
78
136
90
113
22
212
130
127
218
4
30
72
140
69
87
144
188
200
124
175
173
154
109
48
16
155
93
56
102
40
185
105
14
6
65
84
203
167
143
24
160
133
108
44
3
62
181
39
88
18
111
67
27
33
95
2
103
176
43
179
184
31
115
100
145

> <PUBCHEM_MMFF94_PARTIAL_CHARGES>
51
1 -0.57
10 0.27
11 -0.15
12 0.41
13 -0.3
14 -0.05
16 0.06
17 -0.14
18 -0.15
19 -0.15
2 -0.57
20 0.06
21 -0.15
22 0.62
23 -0.15
24 -0.05
25 -0.15
26 -0.15
27 0.62
29 -0.3
3 -0.81
30 -0.15
31 -0.15
32 -0.15
33 -0.15
34 -0.15
35 -0.15
36 0.26
37 -0.15
38 -0.15
4 0.05
48 0.15
49 0.15
5 -0.49
50 0.15
51 0.15
52 0.15
53 0.15
54 0.15
55 0.37
56 0.15
57 0.15
58 0.15
59 0.15
6 0.05
60 0.15
61 0.15
65 0.15
66 0.15
7 0.26
9 0.27

> <PUBCHEM_EFFECTIVE_ROTOR_COUNT>
6.2

> <PUBCHEM_PHARMACOPHORE_FEATURES>
13
1 1 acceptor
1 2 acceptor
1 3 cation
1 4 cation
1 5 donor
1 6 cation
5 3 7 8 9 10 rings
5 4 11 13 14 15 rings
5 5 16 20 22 27 rings
5 6 24 28 29 30 rings
6 11 15 18 19 21 23 rings
6 17 25 26 31 32 34 rings
6 28 30 33 35 37 38 rings

> <PUBCHEM_HEAVY_ATOM_COUNT>
38

> <PUBCHEM_ATOM_DEF_STEREO_COUNT>
0

> <PUBCHEM_ATOM_UDEF_STEREO_COUNT>
1

> <PUBCHEM_BOND_DEF_STEREO_COUNT>
0

> <PUBCHEM_BOND_UDEF_STEREO_COUNT>
0

> <PUBCHEM_ISOTOPIC_ATOM_COUNT>
0

> <PUBCHEM_COMPONENT_COUNT>
1

> <PUBCHEM_CACTVS_TAUTO_COUNT>
3

> <PUBCHEM_CONFORMER_ID>
00A6EE8700000001

> <PUBCHEM_MMFF94_ENERGY>
90.2037

> <PUBCHEM_FEATURE_SELFOVERLAP>
66.16

> <PUBCHEM_SHAPE_FINGERPRINT>
10032420 55 17749396948887195746
10928967 22 18411706512884045022
11513181 2 17485948616033460614
12156800 1 17477142502172061650
12422481 6 18265638548906815395
13122387 1 18411697648124274018
1361 2 17909522005410505405
13761468 95 18051998943226382334
14918310 93 18408606968051549443
15484559 13 17540215819233092581
15664445 248 16752940068066396845
16067689 391 16620972310519933798
161222 619 17835530314774797881
20764821 26 18341323419246947598
3027735 51 18053075592083891175
3298306 158 18046612426581447540
508706 21 18187640280632633388

> <PUBCHEM_SHAPE_MULTIPOLES>
750.36
9.12
6.91
2.83
10.43
0.44
0.43
-0.36
-1.9
-0.4
2.94
-3.99
-0.02
2.71

> <PUBCHEM_SHAPE_SELFOVERLAP>
1698.385

> <PUBCHEM_SHAPE_VOLUME>
398.7

> <PUBCHEM_COORDINATE_TYPE>
2
5
10

$$$$
