18001010
  -OEChem-10052120443D

 25 27  0     0  0  0  0  0  0999 V2000
    1.1591   -0.3821    0.0024 N   0  0  0  0  0  0  0  0  0  0  0  0
    3.2597   -1.1695   -0.0080 N   0  0  0  0  0  0  0  0  0  0  0  0
    0.1463    0.5928    0.0071 C   0  0  0  0  0  0  0  0  0  0  0  0
    2.5214   -0.0787   -0.0054 C   0  0  0  0  0  0  0  0  0  0  0  0
   -1.2848    0.2520    0.0024 C   0  0  0  0  0  0  0  0  0  0  0  0
    0.5142    1.8914    0.0058 C   0  0  0  0  0  0  0  0  0  0  0  0
    1.0715   -1.7549    0.0134 C   0  0  0  0  0  0  0  0  0  0  0  0
    2.8844    1.2983   -0.0069 C   0  0  0  0  0  0  0  0  0  0  0  0
    1.9247    2.2406    0.0000 C   0  0  0  0  0  0  0  0  0  0  0  0
   -1.9587    0.0878   -1.2078 C   0  0  0  0  0  0  0  0  0  0  0  0
   -1.9677    0.0928    1.2081 C   0  0  0  0  0  0  0  0  0  0  0  0
    2.3686   -2.2090    0.0039 C   0  0  0  0  0  0  0  0  0  0  0  0
   -3.3156   -0.2357   -1.2122 C   0  0  0  0  0  0  0  0  0  0  0  0
   -3.3245   -0.2307    1.2037 C   0  0  0  0  0  0  0  0  0  0  0  0
   -3.9984   -0.3949   -0.0065 C   0  0  0  0  0  0  0  0  0  0  0  0
   -0.2047    2.7042    0.0058 H   0  0  0  0  0  0  0  0  0  0  0  0
    0.1250   -2.2776    0.0249 H   0  0  0  0  0  0  0  0  0  0  0  0
    3.9334    1.5726   -0.0122 H   0  0  0  0  0  0  0  0  0  0  0  0
    2.1827    3.2942   -0.0004 H   0  0  0  0  0  0  0  0  0  0  0  0
   -1.4401    0.2075   -2.1560 H   0  0  0  0  0  0  0  0  0  0  0  0
   -1.4561    0.2164    2.1596 H   0  0  0  0  0  0  0  0  0  0  0  0
    2.7043   -3.2357    0.0063 H   0  0  0  0  0  0  0  0  0  0  0  0
   -3.8404   -0.3640   -2.1545 H   0  0  0  0  0  0  0  0  0  0  0  0
   -3.8563   -0.3552    2.1425 H   0  0  0  0  0  0  0  0  0  0  0  0
   -5.0548   -0.6470   -0.0099 H   0  0  0  0  0  0  0  0  0  0  0  0
  1  3  1  0  0  0  0
  1  4  1  0  0  0  0
  1  7  1  0  0  0  0
  2  4  2  0  0  0  0
  2 12  1  0  0  0  0
  3  5  1  0  0  0  0
  3  6  2  0  0  0  0
  4  8  1  0  0  0  0
  5 10  2  0  0  0  0
  5 11  1  0  0  0  0
  6  9  1  0  0  0  0
  6 16  1  0  0  0  0
  7 12  2  0  0  0  0
  7 17  1  0  0  0  0
  8  9  2  0  0  0  0
  8 18  1  0  0  0  0
  9 19  1  0  0  0  0
 10 13  1  0  0  0  0
 10 20  1  0  0  0  0
 11 14  2  0  0  0  0
 11 21  1  0  0  0  0
 12 22  1  0  0  0  0
 13 15  2  0  0  0  0
 13 23  1  0  0  0  0
 14 15  1  0  0  0  0
 14 24  1  0  0  0  0
 15 25  1  0  0  0  0
M  END
> <PUBCHEM_COMPOUND_CID>
18001010

> <PUBCHEM_CONFORMER_RMSD>
0.4

> <PUBCHEM_CONFORMER_DIVERSEORDER>
1
2
3

> <PUBCHEM_MMFF94_PARTIAL_CHARGES>
25
1 0.33
10 -0.15
11 -0.15
12 0.08
13 -0.15
14 -0.15
15 -0.15
16 0.15
17 0.15
18 0.15
19 0.15
2 -0.57
20 0.15
21 0.15
22 0.15
23 0.15
24 0.15
25 0.15
3 -0.06
4 0.14
5 0.03
6 -0.15
7 -0.3
8 -0.11
9 -0.15

> <PUBCHEM_EFFECTIVE_ROTOR_COUNT>
1

> <PUBCHEM_PHARMACOPHORE_FEATURES>
4
3 1 2 4 cation
5 1 2 4 7 12 rings
6 1 3 4 6 8 9 rings
6 5 10 11 13 14 15 rings

> <PUBCHEM_HEAVY_ATOM_COUNT>
15

> <PUBCHEM_ATOM_DEF_STEREO_COUNT>
0

> <PUBCHEM_ATOM_UDEF_STEREO_COUNT>
0

> <PUBCHEM_BOND_DEF_STEREO_COUNT>
0

> <PUBCHEM_BOND_UDEF_STEREO_COUNT>
0

> <PUBCHEM_ISOTOPIC_ATOM_COUNT>
0

> <PUBCHEM_COMPONENT_COUNT>
1

> <PUBCHEM_CACTVS_TAUTO_COUNT>
1

> <PUBCHEM_CONFORMER_ID>
0112AC7200000001

> <PUBCHEM_MMFF94_ENERGY>
39.942

> <PUBCHEM_FEATURE_SELFOVERLAP>
20.411

> <PUBCHEM_SHAPE_FINGERPRINT>
107287 299 18187653556118277388
10980938 120 18412263964746531884
11471102 20 18409727378393919573
11471102 22 18408327691512265304
12236239 1 17703793638988944809
12553582 1 18195252104984963538
12932764 1 17775565359998642809
13140716 1 18194678400854829000
13296908 3 17967253096177241931
13538477 17 17417807400529417847
14251717 144 18411696612351392431
15219456 202 18113616811322919405
15279307 12 18058447775827425215
15375462 189 17988926703822809331
15442244 35 18196939868286807273
15501101 241 18333736822736883908
16945 1 18410574015490756160
1813 80 17914915148937153534
18186145 218 18342180002564849653
19049666 15 17895747392589014261
19422 9 17917996091928699343
200 152 18272643550525134855
20201158 50 18187646886007725547
20279233 1 17822007635949478163
20361792 2 18270114608866325231
204376 136 18122060077235438624
20645477 70 18410846655888583463
20871998 22 18127417748252278934
21639500 275 18339634663237861797
21730867 7 18261674860685372332
22112679 90 17346600785431199065
22445834 79 18201725046006578441
2255824 54 18341898532194368580
22802520 49 18041831818806878773
23419403 2 14931191352178092482
23557571 272 16950281823515335037
23559900 14 16877937214135309010
23598291 2 18060144232201227837
23728640 28 16029850570559100499
2748010 2 18123178018635985948
33824 294 18336263543338575338
474 4 17628624555741177192
581208 293 18411695530130390672
6049 1 17894351068735519557
63268167 104 18341609351687606657
7364860 26 18343020012569314000
77492 1 17703793643273375585
81228 2 17617653255246424872
8272917 22 18341621399677416567
88987 49 15574705920128119695
9981440 41 15762155305365737240

> <PUBCHEM_SHAPE_MULTIPOLES>
298.73
6.24
1.99
1.01
3.37
0.01
0
1.05
-0.01
-2.43
0
1.06
0.01
-0.01

> <PUBCHEM_SHAPE_SELFOVERLAP>
666.349

> <PUBCHEM_SHAPE_VOLUME>
158.2

> <PUBCHEM_COORDINATE_TYPE>
2
5
10

$$$$
