24905281
  -OEChem-10052115143D

 41 44  0     0  0  0  0  0  0999 V2000
    4.3109    1.1179   -2.0061 O   0  0  0  0  0  0  0  0  0  0  0  0
   -1.9543    0.1128   -0.0147 N   0  0  0  0  0  0  0  0  0  0  0  0
   -0.8178    0.8279    0.0790 N   0  0  0  0  0  0  0  0  0  0  0  0
   -2.6862   -2.1917   -0.1399 N   0  0  0  0  0  0  0  0  0  0  0  0
   -0.8026   -3.7407   -0.0808 N   0  0  0  0  0  0  0  0  0  0  0  0
    1.4638   -3.0099    0.0828 N   0  0  0  0  0  0  0  0  0  0  0  0
    5.5544    1.4240    0.4992 N   0  0  0  0  0  0  0  0  0  0  0  0
   -3.2844    0.8304   -0.0695 C   0  0  0  0  0  0  0  0  0  0  0  0
   -3.4435    1.7932   -1.2647 C   0  0  0  0  0  0  0  0  0  0  0  0
   -3.5488    1.6795    1.1866 C   0  0  0  0  0  0  0  0  0  0  0  0
   -3.6347    3.1788   -0.6584 C   0  0  0  0  0  0  0  0  0  0  0  0
   -4.3014    2.8992    0.6769 C   0  0  0  0  0  0  0  0  0  0  0  0
   -1.7493   -1.2344   -0.0498 C   0  0  0  0  0  0  0  0  0  0  0  0
   -0.3793   -1.4144    0.0264 C   0  0  0  0  0  0  0  0  0  0  0  0
    0.1377   -0.1077    0.1037 C   0  0  0  0  0  0  0  0  0  0  0  0
    1.5213    0.2839    0.2007 C   0  0  0  0  0  0  0  0  0  0  0  0
    0.0884   -2.7242    0.0087 C   0  0  0  0  0  0  0  0  0  0  0  0
   -2.1158   -3.4159   -0.1486 C   0  0  0  0  0  0  0  0  0  0  0  0
    2.2637    0.5156   -0.9573 C   0  0  0  0  0  0  0  0  0  0  0  0
    2.1181    0.4307    1.4528 C   0  0  0  0  0  0  0  0  0  0  0  0
    3.6029    0.8945   -0.8630 C   0  0  0  0  0  0  0  0  0  0  0  0
    3.4572    0.8093    1.5470 C   0  0  0  0  0  0  0  0  0  0  0  0
    4.1997    1.0413    0.3892 C   0  0  0  0  0  0  0  0  0  0  0  0
   -4.0367    0.0361   -0.1472 H   0  0  0  0  0  0  0  0  0  0  0  0
   -4.3429    1.5174   -1.8289 H   0  0  0  0  0  0  0  0  0  0  0  0
   -2.6000    1.7697   -1.9620 H   0  0  0  0  0  0  0  0  0  0  0  0
   -2.6166    1.9957    1.6692 H   0  0  0  0  0  0  0  0  0  0  0  0
   -4.1299    1.1271    1.9322 H   0  0  0  0  0  0  0  0  0  0  0  0
   -4.2360    3.8317   -1.2974 H   0  0  0  0  0  0  0  0  0  0  0  0
   -2.6604    3.6567   -0.5016 H   0  0  0  0  0  0  0  0  0  0  0  0
   -4.2315    3.7472    1.3639 H   0  0  0  0  0  0  0  0  0  0  0  0
   -5.3613    2.6590    0.5318 H   0  0  0  0  0  0  0  0  0  0  0  0
   -2.8016   -4.2534   -0.2195 H   0  0  0  0  0  0  0  0  0  0  0  0
    1.7996    0.4011   -1.9349 H   0  0  0  0  0  0  0  0  0  0  0  0
    1.5532    0.2531    2.3650 H   0  0  0  0  0  0  0  0  0  0  0  0
    2.1510   -2.2737    0.1500 H   0  0  0  0  0  0  0  0  0  0  0  0
    1.7611   -3.9763    0.0667 H   0  0  0  0  0  0  0  0  0  0  0  0
    3.9103    0.9198    2.5290 H   0  0  0  0  0  0  0  0  0  0  0  0
    5.9800    1.5288    1.4106 H   0  0  0  0  0  0  0  0  0  0  0  0
    6.0981    1.5942   -0.3364 H   0  0  0  0  0  0  0  0  0  0  0  0
    3.7326    0.9675   -2.7735 H   0  0  0  0  0  0  0  0  0  0  0  0
  1 21  1  0  0  0  0
  1 41  1  0  0  0  0
  2  3  1  0  0  0  0
  2  8  1  0  0  0  0
  2 13  1  0  0  0  0
  3 15  2  0  0  0  0
  4 13  2  0  0  0  0
  4 18  1  0  0  0  0
  5 17  1  0  0  0  0
  5 18  2  0  0  0  0
  6 17  1  0  0  0  0
  6 36  1  0  0  0  0
  6 37  1  0  0  0  0
  7 23  1  0  0  0  0
  7 39  1  0  0  0  0
  7 40  1  0  0  0  0
  8  9  1  0  0  0  0
  8 10  1  0  0  0  0
  8 24  1  0  0  0  0
  9 11  1  0  0  0  0
  9 25  1  0  0  0  0
  9 26  1  0  0  0  0
 10 12  1  0  0  0  0
 10 27  1  0  0  0  0
 10 28  1  0  0  0  0
 11 12  1  0  0  0  0
 11 29  1  0  0  0  0
 11 30  1  0  0  0  0
 12 31  1  0  0  0  0
 12 32  1  0  0  0  0
 13 14  1  0  0  0  0
 14 15  1  0  0  0  0
 14 17  2  0  0  0  0
 15 16  1  0  0  0  0
 16 19  2  0  0  0  0
 16 20  1  0  0  0  0
 18 33  1  0  0  0  0
 19 21  1  0  0  0  0
 19 34  1  0  0  0  0
 20 22  2  0  0  0  0
 20 35  1  0  0  0  0
 21 23  2  0  0  0  0
 22 23  1  0  0  0  0
 22 38  1  0  0  0  0
M  END
> <PUBCHEM_COMPOUND_CID>
24905281

> <PUBCHEM_CONFORMER_RMSD>
0.6

> <PUBCHEM_CONFORMER_DIVERSEORDER>
2
3
15
7
16
8
5
14
4
1
10
12
13
9
11
6

> <PUBCHEM_MMFF94_PARTIAL_CHARGES>
27
1 -0.53
13 0.11
15 0.23
16 0.05
17 0.41
18 0.47
19 -0.15
2 0.31
20 -0.15
21 0.08
22 -0.15
23 0.1
3 -0.71
33 0.15
34 0.15
35 0.15
36 0.4
37 0.4
38 0.15
39 0.4
4 -0.57
40 0.4
41 0.45
5 -0.62
6 -0.9
7 -0.9
8 0.26

> <PUBCHEM_EFFECTIVE_ROTOR_COUNT>
3

> <PUBCHEM_PHARMACOPHORE_FEATURES>
12
1 1 donor
1 3 acceptor
1 6 cation
1 6 donor
1 7 cation
1 7 donor
3 2 4 13 cation
3 4 5 18 cation
5 2 3 13 14 15 rings
5 8 9 10 11 12 rings
6 16 19 20 21 22 23 rings
6 4 5 13 14 17 18 rings

> <PUBCHEM_HEAVY_ATOM_COUNT>
23

> <PUBCHEM_ATOM_DEF_STEREO_COUNT>
0

> <PUBCHEM_ATOM_UDEF_STEREO_COUNT>
0

> <PUBCHEM_BOND_DEF_STEREO_COUNT>
0

> <PUBCHEM_BOND_UDEF_STEREO_COUNT>
0

> <PUBCHEM_ISOTOPIC_ATOM_COUNT>
0

> <PUBCHEM_COMPONENT_COUNT>
1

> <PUBCHEM_CACTVS_TAUTO_COUNT>
43

> <PUBCHEM_CONFORMER_ID>
017C064100000002

> <PUBCHEM_MMFF94_ENERGY>
67.5348

> <PUBCHEM_FEATURE_SELFOVERLAP>
61.18

> <PUBCHEM_SHAPE_FINGERPRINT>
10165383 225 18340222799201565689
10411042 1 17618218850636696787
105312 117 18411421695869130700
11582403 64 16554475216806373418
11725454 13 16985988459263743848
11796584 16 18342464729971435822
11833330 49 18049436251714560195
12107183 9 18263630789683352608
12173636 292 18410288146577684421
12236239 1 17604979502788498586
12390115 104 18271258152915785153
12422481 6 17825928365944845688
12500047 106 18413101784322813904
12788726 201 17974296713440825678
13134695 92 17184179545139641471
13140716 1 18265614273883968507
13878862 14 17472127381358867301
13965767 371 18114453449488334996
14178342 30 18337379552363016242
14508225 48 17838039769829564183
14713325 29 18336269049755966675
15042514 8 18120658191283380883
15230672 131 18336831889026987054
15842332 3 17822845498406913328
16752209 62 18265604562503924058
16988056 13 16893688555342691117
1741750 31 18411980247796860345
18785283 64 17974576801490993083
19784866 34 18270399374162979225
20510252 161 18127127691635252155
20739085 24 16831791544515539091
21033650 10 18118143548498367244
21065201 7 18270120240254161394
21524375 3 18259980457722590601
22149856 69 18120111498767826737
2255824 54 17836644128833443423
22907989 373 18192424393090298375
23366157 5 17971752168994050251
23557571 272 18129383872737994472
23559900 14 18202008725066455044
23598291 2 17749384931842734772
2748010 2 18338244760735170143
283562 15 18267014145407011867
3091708 16 9484575872167787571
350125 39 18338804412217031195
3729539 64 17763492542021815934
458136 41 18195256516227041329
469060 322 18337121163331309689
474 4 18124305013780542609
495365 180 18050275978193271249
5048184 11 18410012113314221833
57527295 17 17418101970687327916
59755656 520 17844832346311985049
633830 44 17916024555937678285
6443956 14 17404577779865286418
77492 1 17604700218202813426
7808743 9 18409169952164651344
81228 2 18123469651094502019
84936 182 17984694516000893857
9862522 239 17968365763248070325
9981440 41 18337104562887221281

> <PUBCHEM_SHAPE_MULTIPOLES>
437.57
8.91
4.11
1.22
4.79
3.9
0.09
-9.6
0.12
-4.02
0.21
0.81
-0.75
-0.17

> <PUBCHEM_SHAPE_SELFOVERLAP>
968.447

> <PUBCHEM_SHAPE_VOLUME>
234.9

> <PUBCHEM_COORDINATE_TYPE>
2
5
10

$$$$
