49830802
  -OEChem-10062121523D

 46 50  0     0  0  0  0  0  0999 V2000
    1.4069    2.7906    1.7741 F   0  0  0  0  0  0  0  0  0  0  0  0
   -2.0793    4.6516   -0.8229 F   0  0  0  0  0  0  0  0  0  0  0  0
    2.9182   -1.0446    0.0436 N   0  0  0  0  0  0  0  0  0  0  0  0
    3.2373    1.1411   -0.0053 N   0  0  0  0  0  0  0  0  0  0  0  0
   -1.7653   -1.6260    0.0086 N   0  0  0  0  0  0  0  0  0  0  0  0
   -0.6908   -0.8120    0.1592 N   0  0  0  0  0  0  0  0  0  0  0  0
   -3.8226   -2.3800    0.0587 N   0  0  0  0  0  0  0  0  0  0  0  0
   -3.0177   -3.3611   -0.4842 N   0  0  0  0  0  0  0  0  0  0  0  0
    3.5155   -2.3542    0.1854 C   0  0  0  0  0  0  0  0  0  0  0  0
    4.9132   -2.0043    0.7334 C   0  0  0  0  0  0  0  0  0  0  0  0
    5.1860   -0.5339    0.3184 C   0  0  0  0  0  0  0  0  0  0  0  0
    3.8163   -0.0254    0.1173 C   0  0  0  0  0  0  0  0  0  0  0  0
    1.6823   -0.5484   -0.1255 C   0  0  0  0  0  0  0  0  0  0  0  0
    1.8972    0.8201   -0.1580 C   0  0  0  0  0  0  0  0  0  0  0  0
    0.4300   -1.3404   -0.2437 C   0  0  0  0  0  0  0  0  0  0  0  0
    0.8738    1.8087   -0.3257 C   0  0  0  0  0  0  0  0  0  0  0  0
    0.5554   -2.7073   -0.8456 C   0  0  0  0  0  0  0  0  0  0  0  0
   -3.4795   -0.0709    0.9439 C   0  0  0  0  0  0  0  0  0  0  0  0
   -3.0582   -1.3508    0.3461 C   0  0  0  0  0  0  0  0  0  0  0  0
   -1.7854   -2.8997   -0.5105 C   0  0  0  0  0  0  0  0  0  0  0  0
   -0.5613   -3.4384   -0.9536 C   0  0  0  0  0  0  0  0  0  0  0  0
    0.6613    2.7731    0.6595 C   0  0  0  0  0  0  0  0  0  0  0  0
    0.0888    1.8047   -1.4787 C   0  0  0  0  0  0  0  0  0  0  0  0
   -4.0758   -0.2316    2.3624 C   0  0  0  0  0  0  0  0  0  0  0  0
   -4.4791    0.7116    0.0594 C   0  0  0  0  0  0  0  0  0  0  0  0
   -0.3364    3.7334    0.4917 C   0  0  0  0  0  0  0  0  0  0  0  0
   -0.9090    2.7648   -1.6465 C   0  0  0  0  0  0  0  0  0  0  0  0
   -1.1216    3.7293   -0.6613 C   0  0  0  0  0  0  0  0  0  0  0  0
    2.9340   -2.9660    0.8780 H   0  0  0  0  0  0  0  0  0  0  0  0
    3.5924   -2.8071   -0.8064 H   0  0  0  0  0  0  0  0  0  0  0  0
    4.8955   -2.0687    1.8295 H   0  0  0  0  0  0  0  0  0  0  0  0
    5.6885   -2.6903    0.3789 H   0  0  0  0  0  0  0  0  0  0  0  0
    5.7303    0.0075    1.0962 H   0  0  0  0  0  0  0  0  0  0  0  0
    5.7512   -0.4945   -0.6180 H   0  0  0  0  0  0  0  0  0  0  0  0
    1.4879   -3.0807   -1.2375 H   0  0  0  0  0  0  0  0  0  0  0  0
   -2.6063    0.5846    1.0589 H   0  0  0  0  0  0  0  0  0  0  0  0
   -0.5391   -4.4258   -1.4006 H   0  0  0  0  0  0  0  0  0  0  0  0
    0.2421    1.0669   -2.2630 H   0  0  0  0  0  0  0  0  0  0  0  0
   -3.3603   -0.7288    3.0266 H   0  0  0  0  0  0  0  0  0  0  0  0
   -4.3210    0.7440    2.7950 H   0  0  0  0  0  0  0  0  0  0  0  0
   -4.9887   -0.8371    2.3401 H   0  0  0  0  0  0  0  0  0  0  0  0
   -4.7206    1.6808    0.5081 H   0  0  0  0  0  0  0  0  0  0  0  0
   -4.0536    0.8930   -0.9337 H   0  0  0  0  0  0  0  0  0  0  0  0
   -5.4114    0.1514   -0.0726 H   0  0  0  0  0  0  0  0  0  0  0  0
   -0.5021    4.4841    1.2586 H   0  0  0  0  0  0  0  0  0  0  0  0
   -1.5202    2.7623   -2.5442 H   0  0  0  0  0  0  0  0  0  0  0  0
  1 22  1  0  0  0  0
  2 28  1  0  0  0  0
  3  9  1  0  0  0  0
  3 12  1  0  0  0  0
  3 13  1  0  0  0  0
  4 12  2  0  0  0  0
  4 14  1  0  0  0  0
  5  6  1  0  0  0  0
  5 19  1  0  0  0  0
  5 20  1  0  0  0  0
  6 15  2  0  0  0  0
  7  8  1  0  0  0  0
  7 19  2  0  0  0  0
  8 20  2  0  0  0  0
  9 10  1  0  0  0  0
  9 29  1  0  0  0  0
  9 30  1  0  0  0  0
 10 11  1  0  0  0  0
 10 31  1  0  0  0  0
 10 32  1  0  0  0  0
 11 12  1  0  0  0  0
 11 33  1  0  0  0  0
 11 34  1  0  0  0  0
 13 14  2  0  0  0  0
 13 15  1  0  0  0  0
 14 16  1  0  0  0  0
 15 17  1  0  0  0  0
 16 22  2  0  0  0  0
 16 23  1  0  0  0  0
 17 21  2  0  0  0  0
 17 35  1  0  0  0  0
 18 19  1  0  0  0  0
 18 24  1  0  0  0  0
 18 25  1  0  0  0  0
 18 36  1  0  0  0  0
 20 21  1  0  0  0  0
 21 37  1  0  0  0  0
 22 26  1  0  0  0  0
 23 27  2  0  0  0  0
 23 38  1  0  0  0  0
 24 39  1  0  0  0  0
 24 40  1  0  0  0  0
 24 41  1  0  0  0  0
 25 42  1  0  0  0  0
 25 43  1  0  0  0  0
 25 44  1  0  0  0  0
 26 28  2  0  0  0  0
 26 45  1  0  0  0  0
 27 28  1  0  0  0  0
 27 46  1  0  0  0  0
M  END
> <PUBCHEM_COMPOUND_CID>
49830802

> <PUBCHEM_CONFORMER_RMSD>
0.8

> <PUBCHEM_CONFORMER_DIVERSEORDER>
1
19
23
7
22
4
21
8
2
3
6
18
24
20
9
17
14
10
15
11
25
13
5
12
16

> <PUBCHEM_MMFF94_PARTIAL_CHARGES>
30
1 -0.19
11 0.18
12 0.01
13 -0.24
14 0.17
15 0.52
16 0.05
17 -0.14
18 0.18
19 0.01
2 -0.19
20 0.14
21 -0.11
22 0.19
23 -0.15
26 -0.15
27 -0.15
28 0.19
3 0.05
35 0.15
37 0.15
38 0.15
4 -0.57
45 0.15
46 0.15
5 0.51
6 -0.65
7 -0.34
8 -0.34
9 0.26

> <PUBCHEM_EFFECTIVE_ROTOR_COUNT>
3.6

> <PUBCHEM_PHARMACOPHORE_FEATURES>
10
1 6 acceptor
3 18 24 25 hydrophobe
3 3 4 12 cation
3 5 7 19 cation
3 5 8 20 cation
5 3 4 12 13 14 rings
5 3 9 10 11 12 rings
5 5 7 8 19 20 rings
6 16 22 23 26 27 28 rings
6 5 6 15 17 20 21 rings

> <PUBCHEM_HEAVY_ATOM_COUNT>
28

> <PUBCHEM_ATOM_DEF_STEREO_COUNT>
0

> <PUBCHEM_ATOM_UDEF_STEREO_COUNT>
0

> <PUBCHEM_BOND_DEF_STEREO_COUNT>
0

> <PUBCHEM_BOND_UDEF_STEREO_COUNT>
0

> <PUBCHEM_ISOTOPIC_ATOM_COUNT>
0

> <PUBCHEM_COMPONENT_COUNT>
1

> <PUBCHEM_CACTVS_TAUTO_COUNT>
1

> <PUBCHEM_CONFORMER_ID>
02F85B9200000001

> <PUBCHEM_MMFF94_ENERGY>
62.8147

> <PUBCHEM_FEATURE_SELFOVERLAP>
53.66

> <PUBCHEM_SHAPE_FINGERPRINT>
10688039 33 18113909234118669393
10708813 3 18126293179489769081
11578080 2 17773290496373836160
12422481 6 17976846206286201561
12553582 1 18338507668742281710
12633257 1 18130517378646530329
12788726 201 18333726902069520058
13140716 1 18409729581696558410
13402501 40 18263359192942063869
13692114 37 17978764858471948437
138480 1 15745000071717831716
13965767 371 18055658134439261363
14068700 675 17916288610954265687
14178342 30 17548967214851780314
14790565 3 17687750854087208212
14955137 171 18123503636928252091
15420108 30 17555158522252582286
17138139 8 17477432657483731925
17980427 23 17846503677138051551
20587220 46 14500120345107058449
20600515 1 17917449634454496616
2132832 1 17770197668675583679
22182313 1 17983299218866284646
23419403 2 17559367289148971752
23559900 14 17832135404967756123
3380486 145 18408891724361999423
350125 39 18409450289639303036
352729 6 17907572533014051894
4340502 62 17689154504743485973
4409770 3 18263915540786530412
474 4 17328293061824307486
6992083 37 18340497758570255611
7097593 13 18122629615246529927

> <PUBCHEM_SHAPE_MULTIPOLES>
531.79
7.92
5.55
1.29
4.02
3.15
0.32
-4.29
3.08
-3.39
-1.47
-0.93
0.47
0.35

> <PUBCHEM_SHAPE_SELFOVERLAP>
1189.089

> <PUBCHEM_SHAPE_VOLUME>
286.6

> <PUBCHEM_COORDINATE_TYPE>
2
5
10

$$$$
