24762205
  -OEChem-10052115143D

 70 74  0     0  0  0  0  0  0999 V2000
    8.8072    1.1509    0.2348 O   0  0  0  0  0  0  0  0  0  0  0  0
    7.1298    1.7203   -1.2117 O   0  0  0  0  0  0  0  0  0  0  0  0
   -7.4701    1.0130    0.0000 N   0  0  0  0  0  0  0  0  0  0  0  0
   -9.7990    2.6609   -0.1422 N   0  0  0  0  0  0  0  0  0  0  0  0
   -0.5682   -2.5444   -0.1159 N   0  0  0  0  0  0  0  0  0  0  0  0
   -1.2373   -3.7198   -0.2990 N   0  0  0  0  0  0  0  0  0  0  0  0
   -1.0329   -0.1979    0.1535 N   0  0  0  0  0  0  0  0  0  0  0  0
    1.5930   -3.4864   -0.1489 N   0  0  0  0  0  0  0  0  0  0  0  0
    6.7689    0.2576    0.5858 N   0  0  0  0  0  0  0  0  0  0  0  0
   -7.3584    2.4639    0.1957 C   0  0  0  0  0  0  0  0  0  0  0  0
   -8.6427    0.5634   -0.7565 C   0  0  0  0  0  0  0  0  0  0  0  0
   -8.6752    3.0373    0.7243 C   0  0  0  0  0  0  0  0  0  0  0  0
   -9.9184    1.1988   -0.1981 C   0  0  0  0  0  0  0  0  0  0  0  0
   -6.2902    0.2617   -0.0375 C   0  0  0  0  0  0  0  0  0  0  0  0
  -11.0426    3.2592    0.3418 C   0  0  0  0  0  0  0  0  0  0  0  0
   -5.4294    0.2604    1.0601 C   0  0  0  0  0  0  0  0  0  0  0  0
   -5.9746   -0.4854   -1.1723 C   0  0  0  0  0  0  0  0  0  0  0  0
   -3.9374   -1.2354   -0.1119 C   0  0  0  0  0  0  0  0  0  0  0  0
   -4.2531   -0.4883    1.0230 C   0  0  0  0  0  0  0  0  0  0  0  0
   -4.7982   -1.2340   -1.2094 C   0  0  0  0  0  0  0  0  0  0  0  0
   -2.7258   -2.0051   -0.1509 C   0  0  0  0  0  0  0  0  0  0  0  0
   -1.4621   -1.4753   -0.0247 C   0  0  0  0  0  0  0  0  0  0  0  0
   -2.5243   -3.3795   -0.3160 C   0  0  0  0  0  0  0  0  0  0  0  0
    0.8265   -2.3585   -0.0251 C   0  0  0  0  0  0  0  0  0  0  0  0
    1.2980   -1.1057    0.1628 C   0  0  0  0  0  0  0  0  0  0  0  0
    0.2510   -0.0409    0.2374 C   0  0  0  0  0  0  0  0  0  0  0  0
    2.7199   -0.7525    0.2721 C   0  0  0  0  0  0  0  0  0  0  0  0
   11.1018    1.9352    0.1331 C   0  0  0  0  0  0  0  0  0  0  0  0
    3.2951    0.1188   -0.6530 C   0  0  0  0  0  0  0  0  0  0  0  0
    3.4945   -1.2874    1.3014 C   0  0  0  0  0  0  0  0  0  0  0  0
    9.7098    1.9834   -0.5028 C   0  0  0  0  0  0  0  0  0  0  0  0
    5.4193   -0.0800    0.4805 C   0  0  0  0  0  0  0  0  0  0  0  0
    4.6447    0.4550   -0.5488 C   0  0  0  0  0  0  0  0  0  0  0  0
    4.8441   -0.9513    1.4056 C   0  0  0  0  0  0  0  0  0  0  0  0
   11.6611    0.5109    0.1424 C   0  0  0  0  0  0  0  0  0  0  0  0
   12.0556    2.8752   -0.6007 C   0  0  0  0  0  0  0  0  0  0  0  0
    7.5195    1.1020   -0.2286 C   0  0  0  0  0  0  0  0  0  0  0  0
   -7.0973    2.9370   -0.7599 H   0  0  0  0  0  0  0  0  0  0  0  0
   -6.5659    2.7189    0.9086 H   0  0  0  0  0  0  0  0  0  0  0  0
   -8.5309    0.8336   -1.8146 H   0  0  0  0  0  0  0  0  0  0  0  0
   -8.7511   -0.5266   -0.6935 H   0  0  0  0  0  0  0  0  0  0  0  0
   -8.8424    2.6861    1.7515 H   0  0  0  0  0  0  0  0  0  0  0  0
   -8.5819    4.1295    0.7637 H   0  0  0  0  0  0  0  0  0  0  0  0
  -10.7555    0.9149   -0.8477 H   0  0  0  0  0  0  0  0  0  0  0  0
  -10.1259    0.7887    0.7997 H   0  0  0  0  0  0  0  0  0  0  0  0
  -10.9656    4.3521    0.3490 H   0  0  0  0  0  0  0  0  0  0  0  0
  -11.2985    2.9248    1.3537 H   0  0  0  0  0  0  0  0  0  0  0  0
  -11.8747    3.0079   -0.3251 H   0  0  0  0  0  0  0  0  0  0  0  0
   -5.6650    0.8236    1.9595 H   0  0  0  0  0  0  0  0  0  0  0  0
   -6.6138   -0.4961   -2.0506 H   0  0  0  0  0  0  0  0  0  0  0  0
   -3.6003   -0.4826    1.8928 H   0  0  0  0  0  0  0  0  0  0  0  0
   -4.5657   -1.8059   -2.1048 H   0  0  0  0  0  0  0  0  0  0  0  0
   -3.2613   -4.1589   -0.4496 H   0  0  0  0  0  0  0  0  0  0  0  0
    0.6313    0.9840    0.3870 H   0  0  0  0  0  0  0  0  0  0  0  0
   11.0188    2.2611    1.1777 H   0  0  0  0  0  0  0  0  0  0  0  0
    1.1466   -4.3832   -0.2975 H   0  0  0  0  0  0  0  0  0  0  0  0
    2.6027   -3.4279   -0.1298 H   0  0  0  0  0  0  0  0  0  0  0  0
    2.7059    0.5419   -1.4632 H   0  0  0  0  0  0  0  0  0  0  0  0
    3.0632   -1.9614    2.0378 H   0  0  0  0  0  0  0  0  0  0  0  0
    9.3321    3.0130   -0.4899 H   0  0  0  0  0  0  0  0  0  0  0  0
    9.7539    1.6345   -1.5419 H   0  0  0  0  0  0  0  0  0  0  0  0
    5.0203    1.1344   -1.3014 H   0  0  0  0  0  0  0  0  0  0  0  0
    5.4355   -1.3738    2.2140 H   0  0  0  0  0  0  0  0  0  0  0  0
   11.7421    0.1101   -0.8737 H   0  0  0  0  0  0  0  0  0  0  0  0
   11.0216   -0.1622    0.7225 H   0  0  0  0  0  0  0  0  0  0  0  0
   12.6584    0.4894    0.5946 H   0  0  0  0  0  0  0  0  0  0  0  0
   11.6811    3.9041   -0.5785 H   0  0  0  0  0  0  0  0  0  0  0  0
   13.0450    2.8701   -0.1311 H   0  0  0  0  0  0  0  0  0  0  0  0
   12.1769    2.5809   -1.6489 H   0  0  0  0  0  0  0  0  0  0  0  0
    7.2734   -0.1683    1.3597 H   0  0  0  0  0  0  0  0  0  0  0  0
  1 31  1  0  0  0  0
  1 37  1  0  0  0  0
  2 37  2  0  0  0  0
  3 10  1  0  0  0  0
  3 11  1  0  0  0  0
  3 14  1  0  0  0  0
  4 12  1  0  0  0  0
  4 13  1  0  0  0  0
  4 15  1  0  0  0  0
  5  6  1  0  0  0  0
  5 22  1  0  0  0  0
  5 24  1  0  0  0  0
  6 23  2  0  0  0  0
  7 22  1  0  0  0  0
  7 26  2  0  0  0  0
  8 24  1  0  0  0  0
  8 56  1  0  0  0  0
  8 57  1  0  0  0  0
  9 32  1  0  0  0  0
  9 37  1  0  0  0  0
  9 70  1  0  0  0  0
 10 12  1  0  0  0  0
 10 38  1  0  0  0  0
 10 39  1  0  0  0  0
 11 13  1  0  0  0  0
 11 40  1  0  0  0  0
 11 41  1  0  0  0  0
 12 42  1  0  0  0  0
 12 43  1  0  0  0  0
 13 44  1  0  0  0  0
 13 45  1  0  0  0  0
 14 16  2  0  0  0  0
 14 17  1  0  0  0  0
 15 46  1  0  0  0  0
 15 47  1  0  0  0  0
 15 48  1  0  0  0  0
 16 19  1  0  0  0  0
 16 49  1  0  0  0  0
 17 20  2  0  0  0  0
 17 50  1  0  0  0  0
 18 19  2  0  0  0  0
 18 20  1  0  0  0  0
 18 21  1  0  0  0  0
 19 51  1  0  0  0  0
 20 52  1  0  0  0  0
 21 22  2  0  0  0  0
 21 23  1  0  0  0  0
 23 53  1  0  0  0  0
 24 25  2  0  0  0  0
 25 26  1  0  0  0  0
 25 27  1  0  0  0  0
 26 54  1  0  0  0  0
 27 29  2  0  0  0  0
 27 30  1  0  0  0  0
 28 31  1  0  0  0  0
 28 35  1  0  0  0  0
 28 36  1  0  0  0  0
 28 55  1  0  0  0  0
 29 33  1  0  0  0  0
 29 58  1  0  0  0  0
 30 34  2  0  0  0  0
 30 59  1  0  0  0  0
 31 60  1  0  0  0  0
 31 61  1  0  0  0  0
 32 33  2  0  0  0  0
 32 34  1  0  0  0  0
 33 62  1  0  0  0  0
 34 63  1  0  0  0  0
 35 64  1  0  0  0  0
 35 65  1  0  0  0  0
 35 66  1  0  0  0  0
 36 67  1  0  0  0  0
 36 68  1  0  0  0  0
 36 69  1  0  0  0  0
M  END
> <PUBCHEM_COMPOUND_CID>
24762205

> <PUBCHEM_CONFORMER_RMSD>
1

> <PUBCHEM_CONFORMER_DIVERSEORDER>
1
5
2
4
8
3
6
7

> <PUBCHEM_MMFF94_PARTIAL_CHARGES>
47
1 -0.43
10 0.37
11 0.37
12 0.27
13 0.27
14 0.1
15 0.27
16 -0.15
17 -0.15
18 0.05
19 -0.15
2 -0.57
20 -0.15
21 -0.05
22 -0.03
23 0.14
24 0.07
25 -0.01
26 0.38
27 0.03
29 -0.15
3 -0.84
30 -0.15
31 0.28
32 0.12
33 -0.15
34 -0.15
37 0.78
4 -0.81
49 0.15
5 0.6
50 0.15
51 0.15
52 0.15
53 0.15
54 0.06
56 0.4
57 0.4
58 0.15
59 0.15
6 -0.71
62 0.15
63 0.15
7 -0.58
70 0.37
8 -0.9
9 -0.55

> <PUBCHEM_EFFECTIVE_ROTOR_COUNT>
9.2

> <PUBCHEM_PHARMACOPHORE_FEATURES>
14
1 2 acceptor
1 3 cation
1 4 cation
1 6 acceptor
1 7 acceptor
1 8 cation
1 8 donor
1 9 donor
3 28 35 36 hydrophobe
5 5 6 21 22 23 rings
6 14 16 17 18 19 20 rings
6 27 29 30 32 33 34 rings
6 3 4 10 11 12 13 rings
6 5 7 22 24 25 26 rings

> <PUBCHEM_HEAVY_ATOM_COUNT>
37

> <PUBCHEM_ATOM_DEF_STEREO_COUNT>
0

> <PUBCHEM_ATOM_UDEF_STEREO_COUNT>
0

> <PUBCHEM_BOND_DEF_STEREO_COUNT>
0

> <PUBCHEM_BOND_UDEF_STEREO_COUNT>
0

> <PUBCHEM_ISOTOPIC_ATOM_COUNT>
0

> <PUBCHEM_COMPONENT_COUNT>
1

> <PUBCHEM_CACTVS_TAUTO_COUNT>
10

> <PUBCHEM_CONFORMER_ID>
0179D75D00000001

> <PUBCHEM_MMFF94_ENERGY>
116.3776

> <PUBCHEM_FEATURE_SELFOVERLAP>
71.177

> <PUBCHEM_SHAPE_FINGERPRINT>
10 15 18113338584043234563
10190206 1 17561091280283822409
10533779 47 14924212813050989728
10930396 42 16587744227641304445
11061554 47 18335419045452710645
11181472 205 18409448077873232938
11409948 41 14692303803155880108
11421887 21 18131075878877235208
11421887 45 18341315764962371617
11578821 258 18194682803656295468
11672396 167 9151168754133261089
12013929 2 18202569484971618668
12144603 126 18260264166620417432
12522641 33 18342742936742200654
12522641 68 18131069346854957847
13165054 27 18335977568439679421
13248334 5 18051131389951570103
13530399 1 18114750455921805316
13553643 46 17603584127690955525
14201967 126 18410291398444213317
14359421 15 11383829351740043437
14394314 77 18187643656793647196
15061470 23 18341048602150586144
15065858 18 17703230737551385646
15152005 290 18411699902560338743
15198563 99 15195289686516522475
15343295 29 18410286996360048124
15439362 3 18342177735160845086
155225 1 18409729564580012256
15685185 35 18412545397738842881
1577012 14 18410567396820046259
15840311 113 18188211996435594495
15890870 6 18412545400984024201
16087824 20 18409729552159632852
19302320 297 18187370917780923501
20156587 128 15338848521191640587
2026 5 10735884958530622453
20609170 114 17749680679919242323
20609170 92 17274830168497837471
20721686 146 18413108342294711862
21057499 1 18266178336704385499
21057603 323 18199183077903144439
21298829 104 18341329999432211341
21360443 89 9439406818202618636
21362267 313 18410288135359929192
21781055 127 18334564769196320050
21792965 68 18341618130690502091
21792965 96 16988838420554981631
21895431 317 10591778567344627460
23516275 100 18191586346815433173
23523787 8 16128648631588456751
23528940 14 9223240633301708388
24771293 8 18407758132537833079
25242607 90 10809352161103531757
25269216 80 16844710020832377135
306946 40 17060327562364239680
3711267 37 18336839661963049456
3986486 107 16487259850286173761
3991529 128 18410298012703509113
4073 2 18335705989341723075
44280117 145 18340485690477597455
4516262 110 18342175510825889815
4760202 170 17203040898784894808
5028188 123 18131347544169065367
54039377 194 9871749091889210033
5776283 40 18272366473896123145
57828716 42 18336264631780159995
57828716 72 18040708136612052373
6201320 82 17702113461665672065
636775 8 9583523118115964736
6673363 416 18131630094154150609
9962374 69 7925616800966148403
9980921 7 18260823801180801165

> <PUBCHEM_SHAPE_MULTIPOLES>
714.84
44.07
3.77
0.98
51
0.6
-0.06
-60.22
2.81
-4.11
0.21
-0.01
0.04
-2.67

> <PUBCHEM_SHAPE_SELFOVERLAP>
1547.526

> <PUBCHEM_SHAPE_VOLUME>
393.7

> <PUBCHEM_COORDINATE_TYPE>
2
5
10

$$$$
