71300299
  -OEChem-10062121573D

 54 57  0     1  0  0  0  0  0999 V2000
    2.5067   -1.0110    1.6614 S   0  0  0  0  0  0  0  0  0  0  0  0
   -3.4872   -0.6262   -0.4707 N   0  0  3  0  0  0  0  0  0  0  0  0
   -2.8801   -3.4652    0.2816 N   0  0  0  0  0  0  0  0  0  0  0  0
   -0.7112    3.3087    0.1017 N   0  0  0  0  0  0  0  0  0  0  0  0
    0.8070    1.5237    0.1031 N   0  0  0  0  0  0  0  0  0  0  0  0
    1.5639    3.7936   -0.1828 N   0  0  0  0  0  0  0  0  0  0  0  0
    2.4379   -2.5832   -0.3894 N   0  0  0  0  0  0  0  0  0  0  0  0
    2.7894   -3.6556    1.6880 N   0  0  0  0  0  0  0  0  0  0  0  0
    5.6143    1.2103   -0.3733 N   0  0  0  0  0  0  0  0  0  0  0  0
   -2.7680   -1.0900   -1.6575 C   0  0  0  0  0  0  0  0  0  0  0  0
   -1.5710   -1.9477   -1.2521 C   0  0  0  0  0  0  0  0  0  0  0  0
   -4.4420   -1.5201    0.1932 C   0  0  0  0  0  0  0  0  0  0  0  0
   -1.9446   -3.3735   -0.8419 C   0  0  0  0  0  0  0  0  0  0  0  0
   -4.2253   -3.0107   -0.0772 C   0  0  0  0  0  0  0  0  0  0  0  0
   -3.3192    0.6783    0.0060 C   0  0  0  0  0  0  0  0  0  0  0  0
   -2.1055    1.3393   -0.1829 C   0  0  0  0  0  0  0  0  0  0  0  0
   -4.3660    1.3183    0.6699 C   0  0  0  0  0  0  0  0  0  0  0  0
   -1.9383    2.6402    0.2918 C   0  0  0  0  0  0  0  0  0  0  0  0
   -4.1988    2.6192    1.1448 C   0  0  0  0  0  0  0  0  0  0  0  0
   -2.9851    3.2802    0.9556 C   0  0  0  0  0  0  0  0  0  0  0  0
    0.6179    2.8531    0.0019 C   0  0  0  0  0  0  0  0  0  0  0  0
    2.0915    1.1223    0.0050 C   0  0  0  0  0  0  0  0  0  0  0  0
    2.2554   -0.3064    0.1182 C   0  0  0  0  0  0  0  0  0  0  0  0
    2.2494   -1.2931   -0.8453 C   0  0  0  0  0  0  0  0  0  0  0  0
    3.1519    1.9847   -0.1848 C   0  0  0  0  0  0  0  0  0  0  0  0
    2.8251    3.3226   -0.2722 C   0  0  0  0  0  0  0  0  0  0  0  0
    2.5846   -2.5551    0.9167 C   0  0  0  0  0  0  0  0  0  0  0  0
    2.0621   -1.0945   -2.2982 C   0  0  0  0  0  0  0  0  0  0  0  0
    4.5101    1.5574   -0.2888 C   0  0  0  0  0  0  0  0  0  0  0  0
    2.8752   -5.0194    1.1782 C   0  0  0  0  0  0  0  0  0  0  0  0
   -2.4300   -0.2476   -2.2737 H   0  0  0  0  0  0  0  0  0  0  0  0
   -3.4416   -1.6523   -2.3157 H   0  0  0  0  0  0  0  0  0  0  0  0
   -1.0076   -1.4738   -0.4396 H   0  0  0  0  0  0  0  0  0  0  0  0
   -0.8910   -2.0178   -2.1094 H   0  0  0  0  0  0  0  0  0  0  0  0
   -4.3909   -1.3726    1.2806 H   0  0  0  0  0  0  0  0  0  0  0  0
   -5.4594   -1.2629   -0.1267 H   0  0  0  0  0  0  0  0  0  0  0  0
   -2.3338   -3.9257   -1.7065 H   0  0  0  0  0  0  0  0  0  0  0  0
   -1.0207   -3.8864   -0.5478 H   0  0  0  0  0  0  0  0  0  0  0  0
   -4.9389   -3.5574    0.5525 H   0  0  0  0  0  0  0  0  0  0  0  0
   -4.4857   -3.2793   -1.1081 H   0  0  0  0  0  0  0  0  0  0  0  0
   -2.9386   -4.4473    0.5539 H   0  0  0  0  0  0  0  0  0  0  0  0
   -1.3039    0.8532   -0.7249 H   0  0  0  0  0  0  0  0  0  0  0  0
   -5.3309    0.8441    0.8231 H   0  0  0  0  0  0  0  0  0  0  0  0
   -5.0146    3.1191    1.6589 H   0  0  0  0  0  0  0  0  0  0  0  0
   -2.8677    4.2938    1.3306 H   0  0  0  0  0  0  0  0  0  0  0  0
   -0.7734    4.3210    0.1545 H   0  0  0  0  0  0  0  0  0  0  0  0
    3.5822    4.0868   -0.4213 H   0  0  0  0  0  0  0  0  0  0  0  0
    2.9519   -0.6333   -2.7382 H   0  0  0  0  0  0  0  0  0  0  0  0
    1.8884   -2.0481   -2.8071 H   0  0  0  0  0  0  0  0  0  0  0  0
    1.2015   -0.4483   -2.4990 H   0  0  0  0  0  0  0  0  0  0  0  0
    2.8932   -3.5483    2.6935 H   0  0  0  0  0  0  0  0  0  0  0  0
    1.9444   -5.3009    0.6760 H   0  0  0  0  0  0  0  0  0  0  0  0
    3.0428   -5.7128    2.0075 H   0  0  0  0  0  0  0  0  0  0  0  0
    3.7081   -5.1151    0.4748 H   0  0  0  0  0  0  0  0  0  0  0  0
  1 23  1  0  0  0  0
  1 27  1  0  0  0  0
  2 10  1  0  0  0  0
  2 12  1  0  0  0  0
  2 15  1  0  0  0  0
  3 13  1  0  0  0  0
  3 14  1  0  0  0  0
  3 41  1  0  0  0  0
  4 18  1  0  0  0  0
  4 21  1  0  0  0  0
  4 46  1  0  0  0  0
  5 21  1  0  0  0  0
  5 22  2  0  0  0  0
  6 21  2  0  0  0  0
  6 26  1  0  0  0  0
  7 24  1  0  0  0  0
  7 27  2  0  0  0  0
  8 27  1  0  0  0  0
  8 30  1  0  0  0  0
  8 51  1  0  0  0  0
  9 29  3  0  0  0  0
 10 11  1  0  0  0  0
 10 31  1  0  0  0  0
 10 32  1  0  0  0  0
 11 13  1  0  0  0  0
 11 33  1  0  0  0  0
 11 34  1  0  0  0  0
 12 14  1  0  0  0  0
 12 35  1  0  0  0  0
 12 36  1  0  0  0  0
 13 37  1  0  0  0  0
 13 38  1  0  0  0  0
 14 39  1  0  0  0  0
 14 40  1  0  0  0  0
 15 16  1  0  0  0  0
 15 17  2  0  0  0  0
 16 18  2  0  0  0  0
 16 42  1  0  0  0  0
 17 19  1  0  0  0  0
 17 43  1  0  0  0  0
 18 20  1  0  0  0  0
 19 20  2  0  0  0  0
 19 44  1  0  0  0  0
 20 45  1  0  0  0  0
 22 23  1  0  0  0  0
 22 25  1  0  0  0  0
 23 24  2  0  0  0  0
 24 28  1  0  0  0  0
 25 26  2  0  0  0  0
 25 29  1  0  0  0  0
 26 47  1  0  0  0  0
 28 48  1  0  0  0  0
 28 49  1  0  0  0  0
 28 50  1  0  0  0  0
 30 52  1  0  0  0  0
 30 53  1  0  0  0  0
 30 54  1  0  0  0  0
M  END
> <PUBCHEM_COMPOUND_CID>
71300299

> <PUBCHEM_CONFORMER_RMSD>
1

> <PUBCHEM_CONFORMER_DIVERSEORDER>
1
178
94
158
107
66
190
18
153
162
125
56
179
119
103
152
130
198
177
150
182
167
59
144
106
147
108
118
112
73
38
95
154
104
80
181
72
126
113
102
196
163
84
157
105
21
116
40
48
55
8
99
110
90
171
111
75
12
200
170
42
174
117
121
161
193
132
115
197
142
101
88
89
35
135
199
156
71
166
168
100
164
185
54
36
201
86
159
187
134
172
155
98
77
138
192
175
151
31
44
194
69
141
49
41
120
191
2
29
96
58
93
137
24
11
180
189
28
67
123
165
128
85
109
114
46
136
82
19
32
184
195
53
149
183
50
124
129
37
63
78
131
143
64
9
188
122
140
57
92
13
127
70
202
16
186
133
97
26
81
83
43
139
76
176
87
5
160
62
17
79
146
6
51
25
65
74
60
61
52
15
20
7
68
145
173
22
23
14
148
47
39
45
169
34
91
33
27
10
30
4
3

> <PUBCHEM_MMFF94_PARTIAL_CHARGES>
37
1 -0.08
10 0.37
12 0.37
13 0.27
14 0.27
15 0.1
16 -0.15
17 -0.15
18 0.1
19 -0.15
2 -0.84
20 -0.15
21 0.72
22 0.36
23 -0.01
24 0.05
25 0.07
26 0.16
27 0.46
28 0.18
29 0.48
3 -0.9
30 0.37
4 -0.6
41 0.36
42 0.15
43 0.15
44 0.15
45 0.15
46 0.4
47 0.15
5 -0.62
51 0.4
6 -0.62
7 -0.57
8 -0.85
9 -0.56

> <PUBCHEM_EFFECTIVE_ROTOR_COUNT>
6.4

> <PUBCHEM_PHARMACOPHORE_FEATURES>
13
1 2 cation
1 3 cation
1 3 donor
1 4 donor
1 5 acceptor
1 8 donor
1 9 acceptor
3 7 8 27 cation
4 4 5 6 21 cation
5 1 7 23 24 27 rings
6 15 16 17 18 19 20 rings
6 5 6 21 22 25 26 rings
7 2 3 10 11 12 13 14 rings

> <PUBCHEM_HEAVY_ATOM_COUNT>
30

> <PUBCHEM_ATOM_DEF_STEREO_COUNT>
0

> <PUBCHEM_ATOM_UDEF_STEREO_COUNT>
0

> <PUBCHEM_BOND_DEF_STEREO_COUNT>
0

> <PUBCHEM_BOND_UDEF_STEREO_COUNT>
0

> <PUBCHEM_ISOTOPIC_ATOM_COUNT>
0

> <PUBCHEM_COMPONENT_COUNT>
1

> <PUBCHEM_CACTVS_TAUTO_COUNT>
23

> <PUBCHEM_CONFORMER_ID>
043FF4CB00000001

> <PUBCHEM_MMFF94_ENERGY>
89.1831

> <PUBCHEM_FEATURE_SELFOVERLAP>
65.973

> <PUBCHEM_SHAPE_FINGERPRINT>
10119406 146 17977957010211829524
10616163 171 18343024440612323381
11135926 11 18335135359052813996
11513181 2 17846502500148195559
11578080 2 17532364258565786700
12156800 1 11806417793171945061
12293681 4 17545036465430785184
12553582 1 18127680746342784293
12633257 1 18125161533201352037
12788726 201 18201995552095744401
13122387 1 18340488872451465279
13140716 1 17981318212107800553
14117953 113 17547569280312001853
14178342 30 18341600568690996472
15403338 16 16377764757817876217
16110190 28 18051406280272885106
16628084 112 18337944594714700997
17909252 39 17773063980104483460
19311894 1 17839458135519130030
19319366 153 17824849770423263426
20028762 73 18197216056532985054
20764821 26 17901115431488446747
21133410 171 17478555422180921055
21421861 104 18408887355894781153
21796203 349 17546765584635515466
3882209 13 17978468084816876791
392239 28 18121225539056135043
463206 1 18410581677849926224
5309563 4 17908706477553337203
57091435 65 18336831866654721446
6823239 73 17844826805783275708
7097593 13 18337104566733528551

> <PUBCHEM_SHAPE_MULTIPOLES>
581.39
9.4
6.46
1.38
1.61
2.84
-0.18
0.21
1.07
-1.14
1.59
-0.51
1.01
-2.84

> <PUBCHEM_SHAPE_SELFOVERLAP>
1235.118

> <PUBCHEM_SHAPE_VOLUME>
325.2

> <PUBCHEM_COORDINATE_TYPE>
2
5
10

$$$$
