25178539
  -OEChem-10062122023D

 51 56  0     0  0  0  0  0  0999 V2000
   -5.4755    1.6482   -0.8557 S   0  0  0  0  0  0  0  0  0  0  0  0
   -1.5110   -0.8480    2.0883 O   0  0  0  0  0  0  0  0  0  0  0  0
   -0.5764    3.4465    0.9607 O   0  0  0  0  0  0  0  0  0  0  0  0
    0.9035   -1.0933    0.3224 N   0  0  0  0  0  0  0  0  0  0  0  0
    1.7304    1.8596   -0.1472 N   0  0  0  0  0  0  0  0  0  0  0  0
   -1.4636    1.3946    1.5378 N   0  0  0  0  0  0  0  0  0  0  0  0
   -6.6488    0.3393   -2.8185 N   0  0  0  0  0  0  0  0  0  0  0  0
   -4.9861   -0.8520   -1.6379 N   0  0  0  0  0  0  0  0  0  0  0  0
    0.2276    0.0840    0.6864 C   0  0  0  0  0  0  0  0  0  0  0  0
    0.5729    1.3672    0.4658 C   0  0  0  0  0  0  0  0  0  0  0  0
    2.2658   -1.2537    0.0260 C   0  0  0  0  0  0  0  0  0  0  0  0
    2.9088    1.1556   -0.4267 C   0  0  0  0  0  0  0  0  0  0  0  0
    3.2490   -0.2078   -0.2990 C   0  0  0  0  0  0  0  0  0  0  0  0
    0.3025   -2.3606    0.1782 C   0  0  0  0  0  0  0  0  0  0  0  0
   -1.0322    0.1067    1.4965 C   0  0  0  0  0  0  0  0  0  0  0  0
   -0.5382    2.2269    0.9899 C   0  0  0  0  0  0  0  0  0  0  0  0
    3.8614    2.0988   -0.8596 C   0  0  0  0  0  0  0  0  0  0  0  0
    1.3090   -3.3201    0.1970 C   0  0  0  0  0  0  0  0  0  0  0  0
    2.5254   -2.6156    0.1513 C   0  0  0  0  0  0  0  0  0  0  0  0
    1.9315    3.1745   -0.5360 C   0  0  0  0  0  0  0  0  0  0  0  0
   -2.6752    1.8339    2.2059 C   0  0  0  0  0  0  0  0  0  0  0  0
    3.2248    3.3530   -0.9408 C   0  0  0  0  0  0  0  0  0  0  0  0
    4.5914   -0.5567   -0.5873 C   0  0  0  0  0  0  0  0  0  0  0  0
    5.1819    1.7036   -1.1431 C   0  0  0  0  0  0  0  0  0  0  0  0
   -1.0440   -2.7481    0.0203 C   0  0  0  0  0  0  0  0  0  0  0  0
   -3.7754    2.2436    1.2293 C   0  0  0  0  0  0  0  0  0  0  0  0
    5.5397    0.3735   -0.9922 C   0  0  0  0  0  0  0  0  0  0  0  0
    0.9790   -4.6906    0.1809 C   0  0  0  0  0  0  0  0  0  0  0  0
   -1.3571   -4.1105   -0.0128 C   0  0  0  0  0  0  0  0  0  0  0  0
   -0.3604   -5.0723    0.0862 C   0  0  0  0  0  0  0  0  0  0  0  0
   -4.1661    1.1090    0.2829 C   0  0  0  0  0  0  0  0  0  0  0  0
   -5.6946    0.2109   -1.8490 C   0  0  0  0  0  0  0  0  0  0  0  0
    3.4986   -3.0838    0.0874 H   0  0  0  0  0  0  0  0  0  0  0  0
    1.1407    3.9075   -0.4911 H   0  0  0  0  0  0  0  0  0  0  0  0
   -2.4207    2.6959    2.8334 H   0  0  0  0  0  0  0  0  0  0  0  0
   -3.0389    1.0349    2.8615 H   0  0  0  0  0  0  0  0  0  0  0  0
    3.6579    4.2884   -1.2674 H   0  0  0  0  0  0  0  0  0  0  0  0
    4.9284   -1.5883   -0.5146 H   0  0  0  0  0  0  0  0  0  0  0  0
    5.9183    2.4296   -1.4765 H   0  0  0  0  0  0  0  0  0  0  0  0
   -1.8393   -2.0170   -0.0830 H   0  0  0  0  0  0  0  0  0  0  0  0
   -4.6486    2.5699    1.8079 H   0  0  0  0  0  0  0  0  0  0  0  0
   -3.4333    3.1081    0.6460 H   0  0  0  0  0  0  0  0  0  0  0  0
    6.5561    0.0564   -1.2066 H   0  0  0  0  0  0  0  0  0  0  0  0
    1.7576   -5.4481    0.2041 H   0  0  0  0  0  0  0  0  0  0  0  0
   -2.3942   -4.4181   -0.1192 H   0  0  0  0  0  0  0  0  0  0  0  0
   -0.6198   -6.1269    0.0595 H   0  0  0  0  0  0  0  0  0  0  0  0
   -4.5207    0.2478    0.8590 H   0  0  0  0  0  0  0  0  0  0  0  0
   -3.3029    0.7974   -0.3134 H   0  0  0  0  0  0  0  0  0  0  0  0
   -6.8636   -0.4219   -3.4533 H   0  0  0  0  0  0  0  0  0  0  0  0
   -7.1700    1.2018   -2.9328 H   0  0  0  0  0  0  0  0  0  0  0  0
   -5.2603   -1.5724   -2.3148 H   0  0  0  0  0  0  0  0  0  0  0  0
  1 31  1  0  0  0  0
  1 32  1  0  0  0  0
  2 15  2  0  0  0  0
  3 16  2  0  0  0  0
  4  9  1  0  0  0  0
  4 11  1  0  0  0  0
  4 14  1  0  0  0  0
  5 10  1  0  0  0  0
  5 12  1  0  0  0  0
  5 20  1  0  0  0  0
  6 15  1  0  0  0  0
  6 16  1  0  0  0  0
  6 21  1  0  0  0  0
  7 32  1  0  0  0  0
  7 49  1  0  0  0  0
  7 50  1  0  0  0  0
  8 32  2  0  0  0  0
  8 51  1  0  0  0  0
  9 10  2  0  0  0  0
  9 15  1  0  0  0  0
 10 16  1  0  0  0  0
 11 13  1  0  0  0  0
 11 19  2  0  0  0  0
 12 13  1  0  0  0  0
 12 17  2  0  0  0  0
 13 23  2  0  0  0  0
 14 18  1  0  0  0  0
 14 25  2  0  0  0  0
 17 22  1  0  0  0  0
 17 24  1  0  0  0  0
 18 19  1  0  0  0  0
 18 28  2  0  0  0  0
 19 33  1  0  0  0  0
 20 22  2  0  0  0  0
 20 34  1  0  0  0  0
 21 26  1  0  0  0  0
 21 35  1  0  0  0  0
 21 36  1  0  0  0  0
 22 37  1  0  0  0  0
 23 27  1  0  0  0  0
 23 38  1  0  0  0  0
 24 27  2  0  0  0  0
 24 39  1  0  0  0  0
 25 29  1  0  0  0  0
 25 40  1  0  0  0  0
 26 31  1  0  0  0  0
 26 41  1  0  0  0  0
 26 42  1  0  0  0  0
 27 43  1  0  0  0  0
 28 30  1  0  0  0  0
 28 44  1  0  0  0  0
 29 30  2  0  0  0  0
 29 45  1  0  0  0  0
 30 46  1  0  0  0  0
 31 47  1  0  0  0  0
 31 48  1  0  0  0  0
M  END
> <PUBCHEM_COMPOUND_CID>
25178539

> <PUBCHEM_CONFORMER_RMSD>
0.8

> <PUBCHEM_CONFORMER_DIVERSEORDER>
1
31
49
19
40
7
12
48
28
2
17
20
35
29
46
23
22
42
10
26
44
32
38
30
45
52
51
9
41
36
37
27
6
13
50
24
34
8
14
18
39
5
43
11
33
25
47
4
16
53
15
21
3

> <PUBCHEM_MMFF94_PARTIAL_CHARGES>
42
1 -0.37
10 -0.02
11 -0.2
12 -0.15
13 0.05
14 -0.15
15 0.62
16 0.62
19 -0.15
2 -0.57
20 -0.3
21 0.3
22 -0.15
23 -0.15
24 -0.15
25 -0.15
27 -0.15
28 -0.15
29 -0.15
3 -0.57
30 -0.15
31 0.23
32 0.64
33 0.15
34 0.15
37 0.15
38 0.15
39 0.15
4 0.33
40 0.15
43 0.15
44 0.15
45 0.15
46 0.15
49 0.4
5 0.33
50 0.4
51 0.4
6 -0.42
7 -0.85
8 -0.85
9 -0.02

> <PUBCHEM_EFFECTIVE_ROTOR_COUNT>
5

> <PUBCHEM_PHARMACOPHORE_FEATURES>
13
1 2 acceptor
1 3 acceptor
1 4 cation
1 5 cation
1 7 donor
1 8 donor
3 7 8 32 cation
5 4 11 14 18 19 rings
5 5 12 17 20 22 rings
5 6 9 10 15 16 rings
6 12 13 17 23 24 27 rings
6 14 18 25 28 29 30 rings
7 4 5 9 10 11 12 13 rings

> <PUBCHEM_HEAVY_ATOM_COUNT>
32

> <PUBCHEM_ATOM_DEF_STEREO_COUNT>
0

> <PUBCHEM_ATOM_UDEF_STEREO_COUNT>
0

> <PUBCHEM_BOND_DEF_STEREO_COUNT>
0

> <PUBCHEM_BOND_UDEF_STEREO_COUNT>
0

> <PUBCHEM_ISOTOPIC_ATOM_COUNT>
0

> <PUBCHEM_COMPONENT_COUNT>
1

> <PUBCHEM_CACTVS_TAUTO_COUNT>
1

> <PUBCHEM_CONFORMER_ID>
018031AB00000001

> <PUBCHEM_MMFF94_ENERGY>
79.7768

> <PUBCHEM_FEATURE_SELFOVERLAP>
66.283

> <PUBCHEM_SHAPE_FINGERPRINT>
10411042 1 17477504452848179494
10622 236 17911783692977481511
1100329 8 18124897886602505282
11045515 52 17330003902059850778
11135609 187 18409730634174809049
11445158 3 17609255503720682753
11513181 2 17842854234472787502
11828532 37 12750378389659361271
13140716 1 18195277540055383440
1361 2 18337957792067675793
138480 1 17328324454288757522
13911987 19 18335995210988554108
14117953 113 18265051319714558150
14790565 3 18268171844919197224
14931854 50 18271794723617535151
15274700 147 15587974031673384029
15705408 1 17833852473063355654
17138139 8 17916852612942124079
19319366 153 18269818918144379919
19591789 44 18195833931282026570
20028762 73 18200312092298579430
20642791 105 18122057874006341168
20775438 99 17770194361497667549
21133410 52 18050269389424490602
23536364 44 18127977610092741615
23559900 14 17688323282742268970
24771293 8 18054787279109084106
3493558 16 17395290673576272341
3882209 13 17322371719294467483
4066623 53 17549522455307848447
46194498 28 18043235848580665773
484989 97 18265903634193690099
563151 97 18267596718723370496

> <PUBCHEM_SHAPE_MULTIPOLES>
625.75
10.84
5.93
1.69
10.28
7.3
-0.22
-7.41
-8.78
-1.73
0.4
3.07
-0.84
-1.63

> <PUBCHEM_SHAPE_SELFOVERLAP>
1406.475

> <PUBCHEM_SHAPE_VOLUME>
333

> <PUBCHEM_COORDINATE_TYPE>
2
5
10

$$$$
