6539952
  -OEChem-10062121543D

 70 75  0     0  0  0  0  0  0999 V2000
    5.7500    2.1664   -1.0865 O   0  0  0  0  0  0  0  0  0  0  0  0
   -6.4555    0.7179    0.1312 N   0  0  0  0  0  0  0  0  0  0  0  0
   -1.0743   -1.2201   -0.0236 N   0  0  0  0  0  0  0  0  0  0  0  0
   -8.9377    2.2003    0.1191 N   0  0  0  0  0  0  0  0  0  0  0  0
   -1.0458   -3.6049    0.3285 N   0  0  0  0  0  0  0  0  0  0  0  0
    1.2008   -4.5421    0.2836 N   0  0  0  0  0  0  0  0  0  0  0  0
    3.1457   -3.2125   -0.0735 N   0  0  0  0  0  0  0  0  0  0  0  0
   -5.0013    0.6136    0.0272 C   0  0  0  0  0  0  0  0  0  0  0  0
   -2.5243   -1.0029    0.0633 C   0  0  0  0  0  0  0  0  0  0  0  0
   -4.4238    0.0780    1.3419 C   0  0  0  0  0  0  0  0  0  0  0  0
   -4.6289   -0.2919   -1.1519 C   0  0  0  0  0  0  0  0  0  0  0  0
   -2.9087   -0.1065    1.2516 C   0  0  0  0  0  0  0  0  0  0  0  0
   -3.1149   -0.4785   -1.2557 C   0  0  0  0  0  0  0  0  0  0  0  0
   -7.0322    1.2296   -1.1182 C   0  0  0  0  0  0  0  0  0  0  0  0
   -6.8374    1.5743    1.2607 C   0  0  0  0  0  0  0  0  0  0  0  0
   -8.5567    1.3423   -1.0094 C   0  0  0  0  0  0  0  0  0  0  0  0
   -8.3619    1.6883    1.3687 C   0  0  0  0  0  0  0  0  0  0  0  0
   -0.4408   -2.4256    0.1037 C   0  0  0  0  0  0  0  0  0  0  0  0
   -0.1504   -0.2340   -0.2458 C   0  0  0  0  0  0  0  0  0  0  0  0
    0.9238   -2.2071   -0.0407 C   0  0  0  0  0  0  0  0  0  0  0  0
    1.0989   -0.8170   -0.2616 C   0  0  0  0  0  0  0  0  0  0  0  0
  -10.3916    2.3067    0.2228 C   0  0  0  0  0  0  0  0  0  0  0  0
    1.7495   -3.3259    0.0579 C   0  0  0  0  0  0  0  0  0  0  0  0
    2.2936   -0.0507   -0.4734 C   0  0  0  0  0  0  0  0  0  0  0  0
   -0.1445   -4.6052    0.4032 C   0  0  0  0  0  0  0  0  0  0  0  0
    2.9726    0.4993    0.6144 C   0  0  0  0  0  0  0  0  0  0  0  0
    2.7774    0.1454   -1.7674 C   0  0  0  0  0  0  0  0  0  0  0  0
    4.1338    1.2442    0.4086 C   0  0  0  0  0  0  0  0  0  0  0  0
    3.9385    0.8903   -1.9733 C   0  0  0  0  0  0  0  0  0  0  0  0
    4.6166    1.4398   -0.8854 C   0  0  0  0  0  0  0  0  0  0  0  0
    6.8311    1.9147   -0.2587 C   0  0  0  0  0  0  0  0  0  0  0  0
    7.1860    0.6044    0.0065 C   0  0  0  0  0  0  0  0  0  0  0  0
    7.5284    2.9800    0.2816 C   0  0  0  0  0  0  0  0  0  0  0  0
    8.2751    0.3510    0.8403 C   0  0  0  0  0  0  0  0  0  0  0  0
    8.6175    2.7265    1.1154 C   0  0  0  0  0  0  0  0  0  0  0  0
    8.9910    1.4119    1.3947 C   0  0  0  0  0  0  0  0  0  0  0  0
   -4.5677    1.6079   -0.1558 H   0  0  0  0  0  0  0  0  0  0  0  0
   -2.9681   -1.9907    0.2464 H   0  0  0  0  0  0  0  0  0  0  0  0
   -4.8908   -0.8794    1.6072 H   0  0  0  0  0  0  0  0  0  0  0  0
   -4.5827    0.7661    2.1776 H   0  0  0  0  0  0  0  0  0  0  0  0
   -4.9362    0.1294   -2.1139 H   0  0  0  0  0  0  0  0  0  0  0  0
   -5.1095   -1.2738   -1.0514 H   0  0  0  0  0  0  0  0  0  0  0  0
   -2.4324    0.8777    1.1566 H   0  0  0  0  0  0  0  0  0  0  0  0
   -2.5368   -0.5438    2.1865 H   0  0  0  0  0  0  0  0  0  0  0  0
   -2.8870   -1.1758   -2.0715 H   0  0  0  0  0  0  0  0  0  0  0  0
   -2.6529    0.4795   -1.5262 H   0  0  0  0  0  0  0  0  0  0  0  0
   -6.8651    0.5469   -1.9559 H   0  0  0  0  0  0  0  0  0  0  0  0
   -6.6040    2.2052   -1.3846 H   0  0  0  0  0  0  0  0  0  0  0  0
   -6.3941    2.5750    1.1698 H   0  0  0  0  0  0  0  0  0  0  0  0
   -6.5243    1.1512    2.2192 H   0  0  0  0  0  0  0  0  0  0  0  0
   -8.9392    1.7700   -1.9443 H   0  0  0  0  0  0  0  0  0  0  0  0
   -8.9956    0.3405   -0.9049 H   0  0  0  0  0  0  0  0  0  0  0  0
   -8.7892    0.7086    1.6236 H   0  0  0  0  0  0  0  0  0  0  0  0
   -8.5998    2.3722    2.1927 H   0  0  0  0  0  0  0  0  0  0  0  0
   -0.4530    0.7975   -0.3742 H   0  0  0  0  0  0  0  0  0  0  0  0
  -10.8123    2.7314   -0.6954 H   0  0  0  0  0  0  0  0  0  0  0  0
  -10.6702    2.9834    1.0381 H   0  0  0  0  0  0  0  0  0  0  0  0
  -10.8671    1.3357    0.4030 H   0  0  0  0  0  0  0  0  0  0  0  0
   -0.5529   -5.5937    0.5836 H   0  0  0  0  0  0  0  0  0  0  0  0
    2.6073    0.3597    1.6293 H   0  0  0  0  0  0  0  0  0  0  0  0
    2.2615   -0.2769   -2.6267 H   0  0  0  0  0  0  0  0  0  0  0  0
    3.7101   -4.0480    0.0038 H   0  0  0  0  0  0  0  0  0  0  0  0
    3.5883   -2.3214   -0.2427 H   0  0  0  0  0  0  0  0  0  0  0  0
    4.6281    1.6797    1.2729 H   0  0  0  0  0  0  0  0  0  0  0  0
    4.3105    1.0386   -2.9834 H   0  0  0  0  0  0  0  0  0  0  0  0
    6.6599   -0.2387   -0.4315 H   0  0  0  0  0  0  0  0  0  0  0  0
    7.2387    4.0038    0.0653 H   0  0  0  0  0  0  0  0  0  0  0  0
    8.5694   -0.6726    1.0536 H   0  0  0  0  0  0  0  0  0  0  0  0
    9.1749    3.5527    1.5469 H   0  0  0  0  0  0  0  0  0  0  0  0
    9.8399    1.2145    2.0428 H   0  0  0  0  0  0  0  0  0  0  0  0
  1 30  1  0  0  0  0
  1 31  1  0  0  0  0
  2  8  1  0  0  0  0
  2 14  1  0  0  0  0
  2 15  1  0  0  0  0
  3  9  1  0  0  0  0
  3 18  1  0  0  0  0
  3 19  1  0  0  0  0
  4 16  1  0  0  0  0
  4 17  1  0  0  0  0
  4 22  1  0  0  0  0
  5 18  2  0  0  0  0
  5 25  1  0  0  0  0
  6 23  1  0  0  0  0
  6 25  2  0  0  0  0
  7 23  1  0  0  0  0
  7 62  1  0  0  0  0
  7 63  1  0  0  0  0
  8 10  1  0  0  0  0
  8 11  1  0  0  0  0
  8 37  1  0  0  0  0
  9 12  1  0  0  0  0
  9 13  1  0  0  0  0
  9 38  1  0  0  0  0
 10 12  1  0  0  0  0
 10 39  1  0  0  0  0
 10 40  1  0  0  0  0
 11 13  1  0  0  0  0
 11 41  1  0  0  0  0
 11 42  1  0  0  0  0
 12 43  1  0  0  0  0
 12 44  1  0  0  0  0
 13 45  1  0  0  0  0
 13 46  1  0  0  0  0
 14 16  1  0  0  0  0
 14 47  1  0  0  0  0
 14 48  1  0  0  0  0
 15 17  1  0  0  0  0
 15 49  1  0  0  0  0
 15 50  1  0  0  0  0
 16 51  1  0  0  0  0
 16 52  1  0  0  0  0
 17 53  1  0  0  0  0
 17 54  1  0  0  0  0
 18 20  1  0  0  0  0
 19 21  2  0  0  0  0
 19 55  1  0  0  0  0
 20 21  1  0  0  0  0
 20 23  2  0  0  0  0
 21 24  1  0  0  0  0
 22 56  1  0  0  0  0
 22 57  1  0  0  0  0
 22 58  1  0  0  0  0
 24 26  2  0  0  0  0
 24 27  1  0  0  0  0
 25 59  1  0  0  0  0
 26 28  1  0  0  0  0
 26 60  1  0  0  0  0
 27 29  2  0  0  0  0
 27 61  1  0  0  0  0
 28 30  2  0  0  0  0
 28 64  1  0  0  0  0
 29 30  1  0  0  0  0
 29 65  1  0  0  0  0
 31 32  2  0  0  0  0
 31 33  1  0  0  0  0
 32 34  1  0  0  0  0
 32 66  1  0  0  0  0
 33 35  2  0  0  0  0
 33 67  1  0  0  0  0
 34 36  2  0  0  0  0
 34 68  1  0  0  0  0
 35 36  1  0  0  0  0
 35 69  1  0  0  0  0
 36 70  1  0  0  0  0
M  END
> <PUBCHEM_COMPOUND_CID>
6539952

> <PUBCHEM_CONFORMER_RMSD>
1

> <PUBCHEM_CONFORMER_DIVERSEORDER>
1
10
5
30
28
19
34
23
31
27
6
26
15
25
33
22
24
14
13
35
17
2
29
3
20
21
4
7
11
32
16
8
12
9
18

> <PUBCHEM_MMFF94_PARTIAL_CHARGES>
44
1 -0.17
14 0.27
15 0.27
16 0.27
17 0.27
18 0.11
19 -0.3
2 -0.81
21 -0.05
22 0.27
23 0.41
24 0.05
25 0.47
26 -0.15
27 -0.15
28 -0.15
29 -0.15
3 0.05
30 0.08
31 0.08
32 -0.15
33 -0.15
34 -0.15
35 -0.15
36 -0.15
4 -0.81
5 -0.57
55 0.15
59 0.15
6 -0.62
60 0.15
61 0.15
62 0.4
63 0.4
64 0.15
65 0.15
66 0.15
67 0.15
68 0.15
69 0.15
7 -0.9
70 0.15
8 0.27
9 0.26

> <PUBCHEM_EFFECTIVE_ROTOR_COUNT>
7.4

> <PUBCHEM_PHARMACOPHORE_FEATURES>
13
1 1 acceptor
1 2 cation
1 4 cation
1 7 cation
1 7 donor
3 3 5 18 cation
3 5 6 25 cation
5 3 18 19 20 21 rings
6 2 4 14 15 16 17 rings
6 24 26 27 28 29 30 rings
6 31 32 33 34 35 36 rings
6 5 6 18 20 23 25 rings
6 8 9 10 11 12 13 rings

> <PUBCHEM_HEAVY_ATOM_COUNT>
36

> <PUBCHEM_ATOM_DEF_STEREO_COUNT>
0

> <PUBCHEM_ATOM_UDEF_STEREO_COUNT>
0

> <PUBCHEM_BOND_DEF_STEREO_COUNT>
0

> <PUBCHEM_BOND_UDEF_STEREO_COUNT>
0

> <PUBCHEM_ISOTOPIC_ATOM_COUNT>
0

> <PUBCHEM_COMPONENT_COUNT>
1

> <PUBCHEM_CACTVS_TAUTO_COUNT>
4

> <PUBCHEM_CONFORMER_ID>
0063CAB000000001

> <PUBCHEM_MMFF94_ENERGY>
99.7442

> <PUBCHEM_FEATURE_SELFOVERLAP>
66.257

> <PUBCHEM_SHAPE_FINGERPRINT>
10029044 110 17704076200366269361
10076449 9 12103846769981192557
10190206 1 18199175365006342719
10411042 1 17543350458107057875
10533779 47 16588306034046995625
10904742 90 18411417323465419723
11135609 201 18411417298207643737
11135926 11 18334850615584320855
11136131 41 18116147766572695042
11297750 10 17317039139460518766
11443803 9 18261105326922185235
11475781 23 18130798892879307676
11621639 307 18198903605420208801
11621639 336 18127694833419940601
11823591 26 18411703196520569383
12013929 2 18059861680401399260
12013929 27 9870591272873029977
12047536 79 17459738225901170073
12098696 120 18409733941436406725
12107183 9 18187922950364730380
12522641 68 18131071566751500751
12838862 33 18412819192481254081
13008946 335 18113622287084988938
13150687 139 17917439709027941950
13248334 5 18194684761206723570
14150023 24 18260826007649753098
14394314 77 18189327035372205544
14937079 2 18265333902935885946
150020 25 14692564446649530720
15021287 119 16878777361705224214
15150948 74 18409729551943394053
15289351 153 18272652303932332456
15392192 29 11025807495777930033
15439362 3 18410292476142881454
15840311 113 18411983525484843206
15890870 6 18411419522489364081
1818759 1 8574712408139995501
19302320 297 17894918459469516820
20105231 36 13407067090684759240
20505436 4 18202278100730565951
20554085 129 18131062754174213626
21033648 29 18260556644591411534
21362857 166 9871204869054464384
21403212 168 18408037416954822866
21585481 151 11025801998858139369
21591340 7 18335977653346351031
23522609 53 17630904716310224753
24771293 8 18113337506122527301
3633792 109 18341896273379265370
3918712 181 18341893008645672721
397638 26 18114180865135761320
4073 2 18333737901997853123
445580 126 18408323276312531460
4516262 110 18340764863097928117
45377200 153 15984808390977090087
4756326 101 17561072645191280240
5080951 261 17201362016932138998
5385378 56 18334858290601655570
54039377 194 8935002577004315745
5470011 282 12967134908561890432
57303763 39 12902130703011893568
57527293 21 15792310317747491247

> <PUBCHEM_SHAPE_MULTIPOLES>
705.11
30.47
4.35
1.36
21.42
6.09
-0.22
-41.33
6.51
-2.41
0.87
0
-0.55
0.05

> <PUBCHEM_SHAPE_SELFOVERLAP>
1547

> <PUBCHEM_SHAPE_VOLUME>
377.9

> <PUBCHEM_COORDINATE_TYPE>
2
5
10

$$$$
