49830715
  -OEChem-10062121533D

 49 53  0     1  0  0  0  0  0999 V2000
   -3.6300   -1.3574   -0.2145 S   0  0  0  0  0  0  0  0  0  0  0  0
   -4.0824   -2.2613    0.8250 O   0  0  0  0  0  0  0  0  0  0  0  0
   -2.9746   -1.8601   -1.4064 O   0  0  0  0  0  0  0  0  0  0  0  0
   -2.6453   -0.1341    0.4632 N   0  0  0  0  0  0  0  0  0  0  0  0
    2.5520    0.1268   -0.2893 N   0  0  0  0  0  0  0  0  0  0  0  0
    2.2165    2.1144   -1.1872 N   0  0  0  0  0  0  0  0  0  0  0  0
    4.8408   -1.5877   -0.2052 N   0  0  0  0  0  0  0  0  0  0  0  0
    3.3318   -3.0155    1.0447 N   0  0  0  0  0  0  0  0  0  0  0  0
   -0.3858    2.4904    0.2798 C   0  0  1  0  0  0  0  0  0  0  0  0
   -2.1215    0.9121   -0.4503 C   0  0  1  0  0  0  0  0  0  0  0  0
    0.2404    1.1109    0.0085 C   0  0  1  0  0  0  0  0  0  0  0  0
   -1.8974    2.2121    0.3317 C   0  0  0  0  0  0  0  0  0  0  0  0
   -0.7527    0.4922   -0.9842 C   0  0  0  0  0  0  0  0  0  0  0  0
   -5.1560   -0.4935   -0.8258 C   0  0  0  0  0  0  0  0  0  0  0  0
   -6.3806   -1.3463   -0.6673 C   0  0  0  0  0  0  0  0  0  0  0  0
   -6.1246   -0.2161    0.2861 C   0  0  0  0  0  0  0  0  0  0  0  0
    0.1291    3.1496    1.5526 C   0  0  0  0  0  0  0  0  0  0  0  0
    1.6645    1.1358   -0.4968 C   0  0  0  0  0  0  0  0  0  0  0  0
   -0.5560    4.4798    1.8074 C   0  0  0  0  0  0  0  0  0  0  0  0
    3.7483    0.4730   -0.8797 C   0  0  0  0  0  0  0  0  0  0  0  0
    2.4766   -1.1047    0.3655 C   0  0  0  0  0  0  0  0  0  0  0  0
    3.5135    1.7097   -1.4297 C   0  0  0  0  0  0  0  0  0  0  0  0
    3.6273   -1.8689    0.3577 C   0  0  0  0  0  0  0  0  0  0  0  0
    4.8859   -0.4263   -0.8139 C   0  0  0  0  0  0  0  0  0  0  0  0
    1.4600   -1.7703    1.0564 C   0  0  0  0  0  0  0  0  0  0  0  0
    2.0203   -2.9645    1.4718 C   0  0  0  0  0  0  0  0  0  0  0  0
   -0.1883    3.1571   -0.5718 H   0  0  0  0  0  0  0  0  0  0  0  0
   -2.8299    1.0813   -1.2671 H   0  0  0  0  0  0  0  0  0  0  0  0
    0.2036    0.5679    0.9571 H   0  0  0  0  0  0  0  0  0  0  0  0
   -2.2629    2.1225    1.3618 H   0  0  0  0  0  0  0  0  0  0  0  0
   -2.4448    3.0400   -0.1340 H   0  0  0  0  0  0  0  0  0  0  0  0
   -0.6012    0.9207   -1.9835 H   0  0  0  0  0  0  0  0  0  0  0  0
   -0.6217   -0.5910   -1.0690 H   0  0  0  0  0  0  0  0  0  0  0  0
   -5.0791    0.1888   -1.6588 H   0  0  0  0  0  0  0  0  0  0  0  0
   -7.1754   -1.2160   -1.3937 H   0  0  0  0  0  0  0  0  0  0  0  0
   -6.3066   -2.3591   -0.2950 H   0  0  0  0  0  0  0  0  0  0  0  0
   -5.8651   -0.4571    1.3087 H   0  0  0  0  0  0  0  0  0  0  0  0
   -6.7486    0.6659    0.1959 H   0  0  0  0  0  0  0  0  0  0  0  0
   -2.0041   -0.4087    1.2187 H   0  0  0  0  0  0  0  0  0  0  0  0
   -0.0260    2.4938    2.4178 H   0  0  0  0  0  0  0  0  0  0  0  0
    1.2095    3.3170    1.4717 H   0  0  0  0  0  0  0  0  0  0  0  0
   -1.6246    4.3590    2.0082 H   0  0  0  0  0  0  0  0  0  0  0  0
   -0.1116    4.9671    2.6814 H   0  0  0  0  0  0  0  0  0  0  0  0
   -0.4392    5.1541    0.9529 H   0  0  0  0  0  0  0  0  0  0  0  0
    4.1990    2.3331   -1.9850 H   0  0  0  0  0  0  0  0  0  0  0  0
    5.8275   -0.1181   -1.2967 H   0  0  0  0  0  0  0  0  0  0  0  0
    0.4382   -1.4828    1.2477 H   0  0  0  0  0  0  0  0  0  0  0  0
    3.9702   -3.7806    1.2133 H   0  0  0  0  0  0  0  0  0  0  0  0
    1.6031   -3.7894    2.0323 H   0  0  0  0  0  0  0  0  0  0  0  0
  1  2  2  0  0  0  0
  1  3  2  0  0  0  0
  1  4  1  0  0  0  0
  1 14  1  0  0  0  0
  4 10  1  0  0  0  0
  4 39  1  0  0  0  0
  5 18  1  0  0  0  0
  5 20  1  0  0  0  0
  5 21  1  0  0  0  0
  6 18  2  0  0  0  0
  6 22  1  0  0  0  0
  7 23  1  0  0  0  0
  7 24  2  0  0  0  0
  8 23  1  0  0  0  0
  8 26  1  0  0  0  0
  8 48  1  0  0  0  0
  9 11  1  0  0  0  0
  9 12  1  0  0  0  0
  9 17  1  0  0  0  0
  9 27  1  0  0  0  0
 10 12  1  0  0  0  0
 10 13  1  0  0  0  0
 10 28  1  0  0  0  0
 11 13  1  0  0  0  0
 11 18  1  0  0  0  0
 11 29  1  0  0  0  0
 12 30  1  0  0  0  0
 12 31  1  0  0  0  0
 13 32  1  0  0  0  0
 13 33  1  0  0  0  0
 14 15  1  0  0  0  0
 14 16  1  0  0  0  0
 14 34  1  0  0  0  0
 15 16  1  0  0  0  0
 15 35  1  0  0  0  0
 15 36  1  0  0  0  0
 16 37  1  0  0  0  0
 16 38  1  0  0  0  0
 17 19  1  0  0  0  0
 17 40  1  0  0  0  0
 17 41  1  0  0  0  0
 19 42  1  0  0  0  0
 19 43  1  0  0  0  0
 19 44  1  0  0  0  0
 20 22  2  0  0  0  0
 20 24  1  0  0  0  0
 21 23  2  0  0  0  0
 21 25  1  0  0  0  0
 22 45  1  0  0  0  0
 24 46  1  0  0  0  0
 25 26  2  0  0  0  0
 25 47  1  0  0  0  0
 26 49  1  0  0  0  0
M  END
> <PUBCHEM_COMPOUND_CID>
49830715

> <PUBCHEM_CONFORMER_RMSD>
0.8

> <PUBCHEM_CONFORMER_DIVERSEORDER>
1
128
265
178
118
89
230
18
222
254
85
115
262
193
268
242
11
223
13
129
188
156
137
17
94
106
100
127
169
219
185
53
68
266
34
24
154
250
65
208
163
246
44
255
108
82
256
113
226
126
51
257
220
234
233
131
71
70
232
74
19
210
172
182
247
207
101
186
47
25
52
99
109
224
38
249
217
140
117
181
138
202
31
183
209
267
84
149
191
14
141
211
37
112
67
8
136
80
102
229
90
179
153
258
252
62
116
218
146
73
251
248
189
203
166
4
206
174
41
238
103
39
2
43
42
164
204
200
162
26
91
114
177
263
167
50
87
81
5
104
170
123
105
55
245
173
120
190
240
78
28
119
194
180
237
3
15
176
142
150
111
196
77
244
33
184
40
133
27
56
216
235
75
7
253
243
187
97
66
152
130
205
199
6
241
214
83
197
107
86
12
192
61
122
46
98
151
231
171
60
54
45
145
10
195
32
157
212
20
264
155
16
132
139
215
239
59
134
148
198
213
228
161
121
96
261
22
159
221
160
58
36
29
125
57
23
175
48
49
135
158
124
165
88
72
260
21
143
95
93
79
30
225
147
9
63
64
35
236
144
110
259
227
69
201
76
92
168

> <PUBCHEM_MMFF94_PARTIAL_CHARGES>
32
1 1.41
10 0.36
11 0.18
14 -0.08
15 -0.2
16 -0.2
18 0.01
2 -0.65
20 -0.24
21 -0.08
22 0.08
23 -0.03
24 0.47
25 -0.15
26 -0.3
3 -0.65
34 0.1
35 0.1
36 0.1
37 0.1
38 0.1
39 0.42
4 -0.91
45 0.15
46 0.06
47 0.15
48 0.27
49 0.15
5 0.38
6 -0.57
7 -0.58
8 0.03

> <PUBCHEM_EFFECTIVE_ROTOR_COUNT>
6.6

> <PUBCHEM_PHARMACOPHORE_FEATURES>
12
1 19 hydrophobe
1 2 acceptor
1 3 acceptor
1 4 donor
1 7 acceptor
1 8 cation
1 8 donor
3 5 6 18 cation
5 5 6 18 20 22 rings
5 8 21 23 25 26 rings
5 9 10 11 12 13 rings
6 5 7 20 21 23 24 rings

> <PUBCHEM_HEAVY_ATOM_COUNT>
26

> <PUBCHEM_ATOM_DEF_STEREO_COUNT>
0

> <PUBCHEM_ATOM_UDEF_STEREO_COUNT>
3

> <PUBCHEM_BOND_DEF_STEREO_COUNT>
0

> <PUBCHEM_BOND_UDEF_STEREO_COUNT>
0

> <PUBCHEM_ISOTOPIC_ATOM_COUNT>
0

> <PUBCHEM_COMPONENT_COUNT>
1

> <PUBCHEM_CACTVS_TAUTO_COUNT>
1

> <PUBCHEM_CONFORMER_ID>
02F85B3B00000001

> <PUBCHEM_MMFF94_ENERGY>
53.8442

> <PUBCHEM_FEATURE_SELFOVERLAP>
61.127

> <PUBCHEM_SHAPE_FINGERPRINT>
10622 236 17972584507496081267
11135609 187 18042133222743261348
11578080 2 17833237876556213736
12107183 9 17903073335775951145
12293681 160 18123488317154687316
12516196 113 18272086119488715699
12553582 1 18272356582074548615
12788726 201 18269838631811639849
13009979 54 18195800761656073514
13533116 47 18265889341376121631
13631057 29 18339925918487958744
14251757 17 17167869677315573995
14787075 74 18197498635385349684
14931854 50 18187931651146033390
15183329 4 18260259725766469973
15537594 2 18339648948647404175
17349148 13 17203331165353158287
17492 54 17458923586711699974
17492 89 18196089937229973670
17980427 26 17839724199905009293
18222031 100 17632021939539051605
19319366 153 18335699511401782590
20028762 73 18411136914322068022
20645477 70 17894345592272194487
20832881 197 18412265064822597409
21033648 29 15482675637548138489
21250096 35 18413106173758297839
23559900 14 18116147951868244085
23598288 3 18056473954818675165
2871803 45 18260268559638653750
3004659 81 18187362129644345687
314194 84 18410293640468934483
3411729 13 17058637689152265928
345986 75 18338789006010611243
392239 28 18342729733384544008
46194498 28 16878225359037845855
463206 1 18338794627875426851
6086070 43 18201988933978922549
9981440 41 9115130606153284488

> <PUBCHEM_SHAPE_MULTIPOLES>
502.27
11.52
4.17
1.4
13.06
2.87
-0.21
-8.69
2.99
-1.1
-2.71
-0.48
0.43
-1.99

> <PUBCHEM_SHAPE_SELFOVERLAP>
1079.402

> <PUBCHEM_SHAPE_VOLUME>
282.1

> <PUBCHEM_COORDINATE_TYPE>
2
5
10

$$$$
