49830458
  -OEChem-10062121543D

 48 52  0     0  0  0  0  0  0999 V2000
   -2.2798    1.5842   -1.0444 F   0  0  0  0  0  0  0  0  0  0  0  0
   -6.9240    3.5007    1.1178 F   0  0  0  0  0  0  0  0  0  0  0  0
   -5.2175   -1.0023   -0.3938 O   0  0  0  0  0  0  0  0  0  0  0  0
    4.1137   -0.4557    0.9971 N   0  0  0  0  0  0  0  0  0  0  0  0
   -2.3686   -4.1430   -0.4417 N   0  0  0  0  0  0  0  0  0  0  0  0
   -3.2161   -3.1007   -0.4355 N   0  0  0  0  0  0  0  0  0  0  0  0
   -2.8875   -0.7562   -0.1618 N   0  0  0  0  0  0  0  0  0  0  0  0
    3.8002   -2.2807   -0.0978 N   0  0  0  0  0  0  0  0  0  0  0  0
    4.7318   -1.4184    0.2939 N   0  0  0  0  0  0  0  0  0  0  0  0
   -1.0557   -2.4173   -0.1141 C   0  0  0  0  0  0  0  0  0  0  0  0
   -1.0566   -3.8007   -0.2534 C   0  0  0  0  0  0  0  0  0  0  0  0
    1.3387   -2.5035    0.1573 C   0  0  0  0  0  0  0  0  0  0  0  0
    0.1613   -1.7477    0.0955 C   0  0  0  0  0  0  0  0  0  0  0  0
   -2.4138   -2.0525   -0.2364 C   0  0  0  0  0  0  0  0  0  0  0  0
    2.5947   -1.8392    0.3726 C   0  0  0  0  0  0  0  0  0  0  0  0
    0.1055   -4.5730   -0.1953 C   0  0  0  0  0  0  0  0  0  0  0  0
    1.3091   -3.8920    0.0142 C   0  0  0  0  0  0  0  0  0  0  0  0
    4.8626    0.6372    1.5628 C   0  0  0  0  0  0  0  0  0  0  0  0
    2.7727   -0.6739    1.0752 C   0  0  0  0  0  0  0  0  0  0  0  0
    5.2353    1.6931    0.5518 C   0  0  0  0  0  0  0  0  0  0  0  0
   -4.2203   -0.3050   -0.2411 C   0  0  0  0  0  0  0  0  0  0  0  0
    6.2990    1.4764   -0.3240 C   0  0  0  0  0  0  0  0  0  0  0  0
    4.5154    2.8863    0.4927 C   0  0  0  0  0  0  0  0  0  0  0  0
   -4.4164    1.1614   -0.0973 C   0  0  0  0  0  0  0  0  0  0  0  0
    6.6428    2.4528   -1.2590 C   0  0  0  0  0  0  0  0  0  0  0  0
    4.8589    3.8627   -0.4423 C   0  0  0  0  0  0  0  0  0  0  0  0
    5.9229    3.6460   -1.3180 C   0  0  0  0  0  0  0  0  0  0  0  0
   -3.4209    2.0455   -0.5132 C   0  0  0  0  0  0  0  0  0  0  0  0
   -5.5997    1.6531    0.4539 C   0  0  0  0  0  0  0  0  0  0  0  0
   -5.7875    3.0286    0.5890 C   0  0  0  0  0  0  0  0  0  0  0  0
   -3.6085    3.4211   -0.3780 C   0  0  0  0  0  0  0  0  0  0  0  0
   -4.7917    3.9126    0.1732 C   0  0  0  0  0  0  0  0  0  0  0  0
    0.1661   -0.6660    0.1937 H   0  0  0  0  0  0  0  0  0  0  0  0
    0.0802   -5.6513   -0.3059 H   0  0  0  0  0  0  0  0  0  0  0  0
    2.2255   -4.4770    0.0667 H   0  0  0  0  0  0  0  0  0  0  0  0
    5.7650    0.2214    2.0279 H   0  0  0  0  0  0  0  0  0  0  0  0
    4.2677    1.0697    2.3764 H   0  0  0  0  0  0  0  0  0  0  0  0
    2.1037   -0.0095    1.6049 H   0  0  0  0  0  0  0  0  0  0  0  0
   -2.7520   -5.0697   -0.5800 H   0  0  0  0  0  0  0  0  0  0  0  0
   -2.1629   -0.0609   -0.0030 H   0  0  0  0  0  0  0  0  0  0  0  0
    6.8723    0.5541   -0.2859 H   0  0  0  0  0  0  0  0  0  0  0  0
    3.6831    3.0671    1.1677 H   0  0  0  0  0  0  0  0  0  0  0  0
    7.4718    2.2846   -1.9402 H   0  0  0  0  0  0  0  0  0  0  0  0
    4.2980    4.7916   -0.4888 H   0  0  0  0  0  0  0  0  0  0  0  0
    6.1906    4.4063   -2.0459 H   0  0  0  0  0  0  0  0  0  0  0  0
   -6.3857    0.9813    0.7886 H   0  0  0  0  0  0  0  0  0  0  0  0
   -2.8331    4.1090   -0.7019 H   0  0  0  0  0  0  0  0  0  0  0  0
   -4.9382    4.9835    0.2786 H   0  0  0  0  0  0  0  0  0  0  0  0
  1 28  1  0  0  0  0
  2 30  1  0  0  0  0
  3 21  2  0  0  0  0
  4  9  1  0  0  0  0
  4 18  1  0  0  0  0
  4 19  1  0  0  0  0
  5  6  1  0  0  0  0
  5 11  1  0  0  0  0
  5 39  1  0  0  0  0
  6 14  2  0  0  0  0
  7 14  1  0  0  0  0
  7 21  1  0  0  0  0
  7 40  1  0  0  0  0
  8  9  2  0  0  0  0
  8 15  1  0  0  0  0
 10 11  2  0  0  0  0
 10 13  1  0  0  0  0
 10 14  1  0  0  0  0
 11 16  1  0  0  0  0
 12 13  2  0  0  0  0
 12 15  1  0  0  0  0
 12 17  1  0  0  0  0
 13 33  1  0  0  0  0
 15 19  2  0  0  0  0
 16 17  2  0  0  0  0
 16 34  1  0  0  0  0
 17 35  1  0  0  0  0
 18 20  1  0  0  0  0
 18 36  1  0  0  0  0
 18 37  1  0  0  0  0
 19 38  1  0  0  0  0
 20 22  2  0  0  0  0
 20 23  1  0  0  0  0
 21 24  1  0  0  0  0
 22 25  1  0  0  0  0
 22 41  1  0  0  0  0
 23 26  2  0  0  0  0
 23 42  1  0  0  0  0
 24 28  2  0  0  0  0
 24 29  1  0  0  0  0
 25 27  2  0  0  0  0
 25 43  1  0  0  0  0
 26 27  1  0  0  0  0
 26 44  1  0  0  0  0
 27 45  1  0  0  0  0
 28 31  1  0  0  0  0
 29 30  2  0  0  0  0
 29 46  1  0  0  0  0
 30 32  1  0  0  0  0
 31 32  2  0  0  0  0
 31 47  1  0  0  0  0
 32 48  1  0  0  0  0
M  END
> <PUBCHEM_COMPOUND_CID>
49830458

> <PUBCHEM_CONFORMER_RMSD>
1

> <PUBCHEM_CONFORMER_DIVERSEORDER>
1
141
167
46
76
162
185
124
117
146
107
188
149
131
171
80
132
19
82
142
137
45
180
96
87
118
192
157
122
133
151
135
172
198
88
156
18
181
83
155
190
25
166
163
194
86
153
20
110
174
123
179
52
63
178
193
57
95
148
12
32
129
200
89
109
182
196
90
27
59
186
170
138
169
70
165
35
104
187
116
105
140
183
28
173
98
161
30
136
158
106
127
139
168
69
66
99
160
150
15
145
121
101
48
100
164
147
159
58
152
130
53
103
154
61
102
120
195
189
199
60
14
176
144
134
97
77
126
24
16
115
26
111
37
184
197
34
41
31
49
73
94
9
75
65
68
128
84
23
67
191
3
64
93
39
29
5
47
44
114
175
143
11
113
125
74
71
85
43
51
17
4
79
108
177
21
72
13
50
7
78
112
33
54
6
81
42
8
119
10
40
62
2
56
91
92
55
22
38
36

> <PUBCHEM_MMFF94_PARTIAL_CHARGES>
45
1 -0.19
11 -0.15
12 0.05
13 -0.15
14 0.35
15 0.17
16 -0.15
17 -0.15
18 0.4
19 -0.3
2 -0.19
20 -0.14
21 0.54
22 -0.15
23 -0.15
24 0.09
25 -0.15
26 -0.15
27 -0.15
28 0.19
29 -0.15
3 -0.57
30 0.19
31 -0.15
32 -0.15
33 0.15
34 0.15
35 0.15
38 0.15
39 0.27
4 0.31
40 0.37
41 0.15
42 0.15
43 0.15
44 0.15
45 0.15
46 0.15
47 0.15
48 0.15
5 0.3
6 -0.71
7 -0.49
8 -0.23
9 -0.42

> <PUBCHEM_EFFECTIVE_ROTOR_COUNT>
6

> <PUBCHEM_PHARMACOPHORE_FEATURES>
8
1 3 acceptor
1 5 donor
1 7 donor
5 4 8 9 15 19 rings
5 5 6 10 11 14 rings
6 10 11 12 13 16 17 rings
6 20 22 23 25 26 27 rings
6 24 28 29 30 31 32 rings

> <PUBCHEM_HEAVY_ATOM_COUNT>
32

> <PUBCHEM_ATOM_DEF_STEREO_COUNT>
0

> <PUBCHEM_ATOM_UDEF_STEREO_COUNT>
0

> <PUBCHEM_BOND_DEF_STEREO_COUNT>
0

> <PUBCHEM_BOND_UDEF_STEREO_COUNT>
0

> <PUBCHEM_ISOTOPIC_ATOM_COUNT>
0

> <PUBCHEM_COMPONENT_COUNT>
1

> <PUBCHEM_CACTVS_TAUTO_COUNT>
24

> <PUBCHEM_CONFORMER_ID>
02F85A3A00000001

> <PUBCHEM_MMFF94_ENERGY>
71.9013

> <PUBCHEM_FEATURE_SELFOVERLAP>
40.69

> <PUBCHEM_SHAPE_FINGERPRINT>
100830 2 18188779482243973300
10670039 82 18192991750318468244
10917259 128 18050555538359263624
10917259 69 18410015464702678196
11273773 38 18411136901046464320
11410812 94 18048053032914919884
11761917 142 18124586746751632544
11828042 163 18341340977569216892
12107183 9 18263344946741466762
12655364 74 17250085839529530940
13165053 182 18189597395184928789
13885169 86 18339927013414761489
13944108 23 18053667971359141040
14251764 75 18410577266522640585
14347329 18 18339355383543029170
14790565 3 18410854352058247978
14849402 71 18122060897236815978
14932702 115 18059571429730370080
15274700 147 17251763732917978916
15320467 1 18122621918676016272
15357212 105 18336000726137641916
15400415 2 18339919316786219009
15968369 153 17768515445801416866
15980000 95 17835521901483179631
16990350 14 18410851041213924314
18393751 57 18334016090929053963
19053607 189 18339068311755063560
19302320 297 18264769848710684986
19611394 137 17248931378053539707
20691028 202 18341047432806288265
21133410 127 18115027372962340556
22033318 11 18041826360647173168
23516275 100 17045407428976402753
23569914 152 8790046134660015737
245318 6 18114755900979792348
3146121 3 18412825786310575057
3146122 72 17537979396463306557
3552219 110 17773885362936888539
437795 96 17826501176722302997
50080093 196 17750506463684142792
5047190 36 18186810196483317900
5047190 48 18408600349074487956
5219985 13 18341890779456964207
53794403 172 18267305339440617022
550186 7 18129102397487055702
550186 72 17906730658741450399
57527585 21 18126827512108259582
5776283 40 18265634104022164118
5951187 136 18200323091466984806
59584819 99 16613366937046815977
6034566 193 18412554214599859273
6036956 94 18336256921295590357
6058803 2 18264746888091158682
6176135 31 18338508634550877848
6608658 132 17910663594901920030
6673363 416 17327752098763179164
7808743 9 18410848901924630362
7970288 3 9692168606313636611
9849439 229 18409170987103628623
9982175 49 17387702845297552244

> <PUBCHEM_SHAPE_MULTIPOLES>
608.24
17.59
7.45
0.99
6.05
1.51
-0.08
-25.3
-0.09
-3.07
0.96
0.97
-0.53
-2.92

> <PUBCHEM_SHAPE_SELFOVERLAP>
1363.104

> <PUBCHEM_SHAPE_VOLUME>
321.8

> <PUBCHEM_COORDINATE_TYPE>
2
5
10

$$$$
