11306240
  -OEChem-10062121553D

 64 67  0     0  0  0  0  0  0999 V2000
   -3.6679   -0.8521   -1.2216 S   0  0  0  0  0  0  0  0  0  0  0  0
    4.9427   -0.9362    0.8930 O   0  0  0  0  0  0  0  0  0  0  0  0
   -8.7697   -1.1659    0.3836 N   0  0  0  0  0  0  0  0  0  0  0  0
   -2.9993    2.8087    1.2709 N   0  0  0  0  0  0  0  0  0  0  0  0
   -0.6729    2.5592    0.9350 N   0  0  0  0  0  0  0  0  0  0  0  0
    4.2787    0.3374   -0.9580 N   0  0  0  0  0  0  0  0  0  0  0  0
    6.5273    0.0661   -0.5045 N   0  0  0  0  0  0  0  0  0  0  0  0
   -2.2363    0.9626   -0.0637 C   0  0  0  0  0  0  0  0  0  0  0  0
   -1.3320    0.0780   -0.7410 C   0  0  0  0  0  0  0  0  0  0  0  0
   -3.5638    0.5650   -0.2459 C   0  0  0  0  0  0  0  0  0  0  0  0
    0.1077    0.1444   -0.7965 C   0  0  0  0  0  0  0  0  0  0  0  0
  -10.1791   -1.5377    0.2442 C   0  0  0  0  0  0  0  0  0  0  0  0
   -7.9145   -2.1758   -0.2432 C   0  0  0  0  0  0  0  0  0  0  0  0
   -1.9751   -0.9412   -1.4024 C   0  0  0  0  0  0  0  0  0  0  0  0
   -4.6223    1.2811    0.3255 C   0  0  0  0  0  0  0  0  0  0  0  0
   -1.9886    2.1061    0.7121 C   0  0  0  0  0  0  0  0  0  0  0  0
   -8.5249    0.1476   -0.1985 C   0  0  0  0  0  0  0  0  0  0  0  0
    0.8676   -0.5112    0.1678 C   0  0  0  0  0  0  0  0  0  0  0  0
    0.7275    0.8636   -1.8141 C   0  0  0  0  0  0  0  0  0  0  0  0
    2.8862    0.2727   -0.9038 C   0  0  0  0  0  0  0  0  0  0  0  0
   -4.2644    2.3911    1.0702 C   0  0  0  0  0  0  0  0  0  0  0  0
    2.2600   -0.4467    0.1139 C   0  0  0  0  0  0  0  0  0  0  0  0
    2.1199    0.9278   -1.8679 C   0  0  0  0  0  0  0  0  0  0  0  0
  -11.0826   -0.5377    0.9456 C   0  0  0  0  0  0  0  0  0  0  0  0
   -8.1599   -3.5506    0.3549 C   0  0  0  0  0  0  0  0  0  0  0  0
   -5.9781    0.8870    0.1437 C   0  0  0  0  0  0  0  0  0  0  0  0
   -7.1286    0.5510   -0.0097 C   0  0  0  0  0  0  0  0  0  0  0  0
    5.2256   -0.2512   -0.0846 C   0  0  0  0  0  0  0  0  0  0  0  0
    7.7524   -0.3217    0.0879 C   0  0  0  0  0  0  0  0  0  0  0  0
    8.9435    0.0978   -0.4810 C   0  0  0  0  0  0  0  0  0  0  0  0
   10.1510   -0.2851    0.1030 C   0  0  0  0  0  0  0  0  0  0  0  0
    7.7346   -1.1134    1.2243 C   0  0  0  0  0  0  0  0  0  0  0  0
   10.1502   -1.0822    1.2479 C   0  0  0  0  0  0  0  0  0  0  0  0
    8.9421   -1.4963    1.8085 C   0  0  0  0  0  0  0  0  0  0  0  0
   11.4430    0.1578   -0.4957 C   0  0  0  0  0  0  0  0  0  0  0  0
  -10.4764   -1.6336   -0.8077 H   0  0  0  0  0  0  0  0  0  0  0  0
  -10.3810   -2.4958    0.7333 H   0  0  0  0  0  0  0  0  0  0  0  0
   -8.0643   -2.2194   -1.3297 H   0  0  0  0  0  0  0  0  0  0  0  0
   -6.8566   -1.9519   -0.0684 H   0  0  0  0  0  0  0  0  0  0  0  0
   -1.5399   -1.7406   -1.9875 H   0  0  0  0  0  0  0  0  0  0  0  0
   -9.1261    0.9214    0.2899 H   0  0  0  0  0  0  0  0  0  0  0  0
   -8.7767    0.1669   -1.2666 H   0  0  0  0  0  0  0  0  0  0  0  0
    0.3932   -1.0746    0.9676 H   0  0  0  0  0  0  0  0  0  0  0  0
    0.1442    1.3807   -2.5721 H   0  0  0  0  0  0  0  0  0  0  0  0
   -5.0186    3.0086    1.5510 H   0  0  0  0  0  0  0  0  0  0  0  0
    2.7811   -0.9797    0.8962 H   0  0  0  0  0  0  0  0  0  0  0  0
    2.5945    1.4925   -2.6664 H   0  0  0  0  0  0  0  0  0  0  0  0
  -10.7328   -0.3145    1.9595 H   0  0  0  0  0  0  0  0  0  0  0  0
  -11.1832    0.3988    0.3888 H   0  0  0  0  0  0  0  0  0  0  0  0
  -12.0921   -0.9555    1.0344 H   0  0  0  0  0  0  0  0  0  0  0  0
   -8.1695   -3.5239    1.4499 H   0  0  0  0  0  0  0  0  0  0  0  0
   -9.0895   -4.0048   -0.0021 H   0  0  0  0  0  0  0  0  0  0  0  0
   -7.3516   -4.2276    0.0549 H   0  0  0  0  0  0  0  0  0  0  0  0
    4.6611    0.8802   -1.7284 H   0  0  0  0  0  0  0  0  0  0  0  0
   -0.5495    3.3884    1.5018 H   0  0  0  0  0  0  0  0  0  0  0  0
    0.1406    2.1020    0.5608 H   0  0  0  0  0  0  0  0  0  0  0  0
    6.6088    0.6460   -1.3359 H   0  0  0  0  0  0  0  0  0  0  0  0
    8.9425    0.7205   -1.3722 H   0  0  0  0  0  0  0  0  0  0  0  0
    6.8458   -1.4753    1.7187 H   0  0  0  0  0  0  0  0  0  0  0  0
   11.0841   -1.3856    1.7134 H   0  0  0  0  0  0  0  0  0  0  0  0
    8.9428   -2.1166    2.7002 H   0  0  0  0  0  0  0  0  0  0  0  0
   11.3612    0.2526   -1.5839 H   0  0  0  0  0  0  0  0  0  0  0  0
   11.7373    1.1264   -0.0796 H   0  0  0  0  0  0  0  0  0  0  0  0
   12.2407   -0.5659   -0.2968 H   0  0  0  0  0  0  0  0  0  0  0  0
  1 10  1  0  0  0  0
  1 14  1  0  0  0  0
  2 28  2  0  0  0  0
  3 12  1  0  0  0  0
  3 13  1  0  0  0  0
  3 17  1  0  0  0  0
  4 16  2  0  0  0  0
  4 21  1  0  0  0  0
  5 16  1  0  0  0  0
  5 55  1  0  0  0  0
  5 56  1  0  0  0  0
  6 20  1  0  0  0  0
  6 28  1  0  0  0  0
  6 54  1  0  0  0  0
  7 28  1  0  0  0  0
  7 29  1  0  0  0  0
  7 57  1  0  0  0  0
  8  9  1  0  0  0  0
  8 10  2  0  0  0  0
  8 16  1  0  0  0  0
  9 11  1  0  0  0  0
  9 14  2  0  0  0  0
 10 15  1  0  0  0  0
 11 18  2  0  0  0  0
 11 19  1  0  0  0  0
 12 24  1  0  0  0  0
 12 36  1  0  0  0  0
 12 37  1  0  0  0  0
 13 25  1  0  0  0  0
 13 38  1  0  0  0  0
 13 39  1  0  0  0  0
 14 40  1  0  0  0  0
 15 21  2  0  0  0  0
 15 26  1  0  0  0  0
 17 27  1  0  0  0  0
 17 41  1  0  0  0  0
 17 42  1  0  0  0  0
 18 22  1  0  0  0  0
 18 43  1  0  0  0  0
 19 23  2  0  0  0  0
 19 44  1  0  0  0  0
 20 22  2  0  0  0  0
 20 23  1  0  0  0  0
 21 45  1  0  0  0  0
 22 46  1  0  0  0  0
 23 47  1  0  0  0  0
 24 48  1  0  0  0  0
 24 49  1  0  0  0  0
 24 50  1  0  0  0  0
 25 51  1  0  0  0  0
 25 52  1  0  0  0  0
 25 53  1  0  0  0  0
 26 27  3  0  0  0  0
 29 30  1  0  0  0  0
 29 32  2  0  0  0  0
 30 31  2  0  0  0  0
 30 58  1  0  0  0  0
 31 33  1  0  0  0  0
 31 35  1  0  0  0  0
 32 34  1  0  0  0  0
 32 59  1  0  0  0  0
 33 34  2  0  0  0  0
 33 60  1  0  0  0  0
 34 61  1  0  0  0  0
 35 62  1  0  0  0  0
 35 63  1  0  0  0  0
 35 64  1  0  0  0  0
M  END
> <PUBCHEM_COMPOUND_CID>
11306240

> <PUBCHEM_CONFORMER_RMSD>
1

> <PUBCHEM_CONFORMER_DIVERSEORDER>
1
11
37
14
28
15
21
32
16
33
29
8
24
5
31
17
34
7
36
30
6
18
26
22
19
35
3
38
13
25
23
27
4
9
40
20
42
12
10
39
41
2

> <PUBCHEM_MMFF94_PARTIAL_CHARGES>
46
1 -0.08
10 0.04
11 0.05
12 0.27
13 0.27
14 -0.11
15 0.07
16 0.41
17 0.47
18 -0.15
19 -0.15
2 -0.57
20 0.12
21 0.16
22 -0.15
23 -0.15
26 -0.07
27 -0.2
28 0.69
29 0.12
3 -0.81
30 -0.15
31 -0.14
32 -0.15
33 -0.15
34 -0.15
35 0.14
4 -0.62
40 0.15
43 0.15
44 0.15
45 0.15
46 0.15
47 0.15
5 -0.9
54 0.37
55 0.4
56 0.4
57 0.37
58 0.15
59 0.15
6 -0.55
60 0.15
61 0.15
7 -0.55
9 -0.05

> <PUBCHEM_EFFECTIVE_ROTOR_COUNT>
8

> <PUBCHEM_PHARMACOPHORE_FEATURES>
10
1 2 acceptor
1 3 cation
1 5 donor
1 6 donor
1 7 donor
3 4 5 16 cation
5 1 8 9 10 14 rings
6 11 18 19 20 22 23 rings
6 29 30 31 32 33 34 rings
6 4 8 10 15 16 21 rings

> <PUBCHEM_HEAVY_ATOM_COUNT>
35

> <PUBCHEM_ATOM_DEF_STEREO_COUNT>
0

> <PUBCHEM_ATOM_UDEF_STEREO_COUNT>
0

> <PUBCHEM_BOND_DEF_STEREO_COUNT>
0

> <PUBCHEM_BOND_UDEF_STEREO_COUNT>
0

> <PUBCHEM_ISOTOPIC_ATOM_COUNT>
0

> <PUBCHEM_COMPONENT_COUNT>
1

> <PUBCHEM_CACTVS_TAUTO_COUNT>
6

> <PUBCHEM_CONFORMER_ID>
00AC850000000001

> <PUBCHEM_MMFF94_ENERGY>
99.9869

> <PUBCHEM_FEATURE_SELFOVERLAP>
50.86

> <PUBCHEM_SHAPE_FINGERPRINT>
10 15 17275099501838702628
10076449 9 17275102821231387001
10162869 55 17821730542335190702
10165383 225 15482670169696055277
10299344 5 18408319966137275910
10580692 12 18131351887425402142
11135609 99 18337391651470635399
12089408 11 18260830371948078292
12664476 115 15985100812559425466
13740195 50 18131067155734788187
14117953 113 12107790704962329355
14251764 46 17821449057982613757
14428016 248 12319735877572926674
14918687 75 18259983799608242350
15247644 1 16877944931828044378
15274700 256 18341331171267375418
15392192 104 18411981344021602622
15419008 47 16558740188937333304
15510794 2 14996281389377691560
17686467 74 18271801332713087752
18335252 98 17917997152490177055
20501277 279 16343986901344928207
21057603 130 17822009838977895263
21102433 48 18186798084627972667
21360443 89 18201716293596894103
21792961 116 18335132099936936629
21895431 317 17894907387164939106
232437 2 17967532371951550294
23399689 5 10015588307807455699
23576562 1 8069159105478242691
3092352 35 18409449164769451546
4017518 198 13984664750606029161
4625314 4 12324255970402046310
57828716 8 18040712580710907875
58083652 198 16081382847398368764
59521270 166 8790890674462019937
59521660 218 17968386752664172756
59682541 35 17561080306457737896
6691757 9 18343025488420923755
67123 10 18333449842128810950
9663363 56 17917991664851482853
9953998 17 16056874754283116439
9962374 69 17748825246217406892

> <PUBCHEM_SHAPE_MULTIPOLES>
693.36
41.87
2.26
1.37
35.97
0.25
0.13
23.87
-11.97
-5.79
-0.89
1.2
-0.15
-2.34

> <PUBCHEM_SHAPE_SELFOVERLAP>
1484.747

> <PUBCHEM_SHAPE_VOLUME>
386

> <PUBCHEM_COORDINATE_TYPE>
2
5
10

$$$$
