44328750
  -OEChem-10062122013D

 68 74  0     1  0  0  0  0  0999 V2000
   -3.8089   -3.1304   -0.1179 O   0  0  0  0  0  0  0  0  0  0  0  0
    3.1055    3.4003   -0.1616 O   0  0  0  0  0  0  0  0  0  0  0  0
    2.0552   -1.8278   -3.0918 N   0  0  1  0  0  0  0  0  0  0  0  0
    0.5958    1.4400    1.5292 N   0  0  0  0  0  0  0  0  0  0  0  0
   -1.9407    1.9870    0.5081 N   0  0  0  0  0  0  0  0  0  0  0  0
   -1.7997   -4.0255    0.7008 N   0  0  0  0  0  0  0  0  0  0  0  0
    1.8143    2.3426   -1.7745 N   0  0  0  0  0  0  0  0  0  0  0  0
    2.2513   -0.5445   -2.4029 C   0  0  1  0  0  0  0  0  0  0  0  0
    3.4083   -0.8474   -1.4483 C   0  0  0  0  0  0  0  0  0  0  0  0
    3.3585   -2.3542   -1.2202 C   0  0  0  0  0  0  0  0  0  0  0  0
    2.1767   -2.8419   -2.0415 C   0  0  0  0  0  0  0  0  0  0  0  0
    2.5830    0.6042   -3.3469 C   0  0  0  0  0  0  0  0  0  0  0  0
   -0.2595    0.4408    1.2121 C   0  0  0  0  0  0  0  0  0  0  0  0
    0.0740   -0.9415    1.3761 C   0  0  0  0  0  0  0  0  0  0  0  0
   -0.7201   -2.0506    1.0856 C   0  0  0  0  0  0  0  0  0  0  0  0
   -1.5303    0.7138    0.7005 C   0  0  0  0  0  0  0  0  0  0  0  0
   -2.3518   -0.4227    0.3999 C   0  0  0  0  0  0  0  0  0  0  0  0
   -1.9887   -1.7586    0.5748 C   0  0  0  0  0  0  0  0  0  0  0  0
    1.4189   -0.6920    1.9052 C   0  0  0  0  0  0  0  0  0  0  0  0
    1.6893    0.7141    1.9806 C   0  0  0  0  0  0  0  0  0  0  0  0
    2.9060    1.8981   -2.6093 C   0  0  0  0  0  0  0  0  0  0  0  0
    0.5310    2.8778    1.4696 C   0  0  0  0  0  0  0  0  0  0  0  0
   -0.5299   -3.5257    1.1944 C   0  0  0  0  0  0  0  0  0  0  0  0
   -3.4971    0.3696   -0.0742 C   0  0  0  0  0  0  0  0  0  0  0  0
    0.7738   -1.9234   -3.7805 C   0  0  0  0  0  0  0  0  0  0  0  0
   -3.2157    1.7757    0.0053 C   0  0  0  0  0  0  0  0  0  0  0  0
   -2.6832   -3.0167    0.3271 C   0  0  0  0  0  0  0  0  0  0  0  0
    0.6918    3.4353    0.0538 C   0  0  0  0  0  0  0  0  0  0  0  0
    2.4353   -1.5804    2.3295 C   0  0  0  0  0  0  0  0  0  0  0  0
    2.9155    1.2008    2.4573 C   0  0  0  0  0  0  0  0  0  0  0  0
    2.0111    3.0654   -0.6066 C   0  0  0  0  0  0  0  0  0  0  0  0
   -4.7684   -0.0057   -0.5717 C   0  0  0  0  0  0  0  0  0  0  0  0
   -4.1541    2.7409   -0.3909 C   0  0  0  0  0  0  0  0  0  0  0  0
    3.6538   -1.0841    2.8028 C   0  0  0  0  0  0  0  0  0  0  0  0
    3.8878    0.2848    2.8648 C   0  0  0  0  0  0  0  0  0  0  0  0
   -5.6965    0.9649   -0.9643 C   0  0  0  0  0  0  0  0  0  0  0  0
   -5.3922    2.3168   -0.8746 C   0  0  0  0  0  0  0  0  0  0  0  0
    1.3598   -0.3038   -1.8067 H   0  0  0  0  0  0  0  0  0  0  0  0
    3.3060   -0.2972   -0.5091 H   0  0  0  0  0  0  0  0  0  0  0  0
    4.3821   -0.5856   -1.8801 H   0  0  0  0  0  0  0  0  0  0  0  0
    4.2892   -2.8100   -1.5790 H   0  0  0  0  0  0  0  0  0  0  0  0
    3.2507   -2.6145   -0.1653 H   0  0  0  0  0  0  0  0  0  0  0  0
    2.3558   -3.8409   -2.4513 H   0  0  0  0  0  0  0  0  0  0  0  0
    1.2789   -2.8779   -1.4131 H   0  0  0  0  0  0  0  0  0  0  0  0
    1.7346    0.7865   -4.0179 H   0  0  0  0  0  0  0  0  0  0  0  0
    3.4356    0.3404   -3.9857 H   0  0  0  0  0  0  0  0  0  0  0  0
    3.8151    1.8003   -2.0070 H   0  0  0  0  0  0  0  0  0  0  0  0
    3.0902    2.6963   -3.3371 H   0  0  0  0  0  0  0  0  0  0  0  0
   -0.3524    3.2316    2.0086 H   0  0  0  0  0  0  0  0  0  0  0  0
    1.3495    3.2802    2.0756 H   0  0  0  0  0  0  0  0  0  0  0  0
    0.2728   -3.8958    0.5534 H   0  0  0  0  0  0  0  0  0  0  0  0
   -0.3979   -3.8522    2.2287 H   0  0  0  0  0  0  0  0  0  0  0  0
    0.7145   -1.2009   -4.6005 H   0  0  0  0  0  0  0  0  0  0  0  0
   -0.0754   -1.7531   -3.1086 H   0  0  0  0  0  0  0  0  0  0  0  0
    0.6584   -2.9154   -4.2313 H   0  0  0  0  0  0  0  0  0  0  0  0
   -1.5538    2.8884    0.6984 H   0  0  0  0  0  0  0  0  0  0  0  0
   -0.1240    3.1620   -0.6174 H   0  0  0  0  0  0  0  0  0  0  0  0
    0.6709    4.5313    0.1070 H   0  0  0  0  0  0  0  0  0  0  0  0
   -2.0231   -5.0135    0.6342 H   0  0  0  0  0  0  0  0  0  0  0  0
    0.8705    2.1808   -2.1127 H   0  0  0  0  0  0  0  0  0  0  0  0
    2.2755   -2.6549    2.2917 H   0  0  0  0  0  0  0  0  0  0  0  0
    3.1360    2.2611    2.5171 H   0  0  0  0  0  0  0  0  0  0  0  0
   -5.0445   -1.0516   -0.6574 H   0  0  0  0  0  0  0  0  0  0  0  0
   -3.9251    3.8005   -0.3245 H   0  0  0  0  0  0  0  0  0  0  0  0
    4.4256   -1.7781    3.1247 H   0  0  0  0  0  0  0  0  0  0  0  0
    4.8427    0.6493    3.2349 H   0  0  0  0  0  0  0  0  0  0  0  0
   -6.6666    0.6549   -1.3436 H   0  0  0  0  0  0  0  0  0  0  0  0
   -6.1267    3.0554   -1.1846 H   0  0  0  0  0  0  0  0  0  0  0  0
  1 27  2  0  0  0  0
  2 31  2  0  0  0  0
  3  8  1  0  0  0  0
  3 11  1  0  0  0  0
  3 25  1  0  0  0  0
  4 13  1  0  0  0  0
  4 20  1  0  0  0  0
  4 22  1  0  0  0  0
  5 16  1  0  0  0  0
  5 26  1  0  0  0  0
  5 56  1  0  0  0  0
  6 23  1  0  0  0  0
  6 27  1  0  0  0  0
  6 59  1  0  0  0  0
  7 21  1  0  0  0  0
  7 31  1  0  0  0  0
  7 60  1  0  0  0  0
  8  9  1  0  0  0  0
  8 12  1  0  0  0  0
  8 38  1  0  0  0  0
  9 10  1  0  0  0  0
  9 39  1  0  0  0  0
  9 40  1  0  0  0  0
 10 11  1  0  0  0  0
 10 41  1  0  0  0  0
 10 42  1  0  0  0  0
 11 43  1  0  0  0  0
 11 44  1  0  0  0  0
 12 21  1  0  0  0  0
 12 45  1  0  0  0  0
 12 46  1  0  0  0  0
 13 14  1  0  0  0  0
 13 16  2  0  0  0  0
 14 15  2  0  0  0  0
 14 19  1  0  0  0  0
 15 18  1  0  0  0  0
 15 23  1  0  0  0  0
 16 17  1  0  0  0  0
 17 18  2  0  0  0  0
 17 24  1  0  0  0  0
 18 27  1  0  0  0  0
 19 20  1  0  0  0  0
 19 29  2  0  0  0  0
 20 30  2  0  0  0  0
 21 47  1  0  0  0  0
 21 48  1  0  0  0  0
 22 28  1  0  0  0  0
 22 49  1  0  0  0  0
 22 50  1  0  0  0  0
 23 51  1  0  0  0  0
 23 52  1  0  0  0  0
 24 26  1  0  0  0  0
 24 32  2  0  0  0  0
 25 53  1  0  0  0  0
 25 54  1  0  0  0  0
 25 55  1  0  0  0  0
 26 33  2  0  0  0  0
 28 31  1  0  0  0  0
 28 57  1  0  0  0  0
 28 58  1  0  0  0  0
 29 34  1  0  0  0  0
 29 61  1  0  0  0  0
 30 35  1  0  0  0  0
 30 62  1  0  0  0  0
 32 36  1  0  0  0  0
 32 63  1  0  0  0  0
 33 37  1  0  0  0  0
 33 64  1  0  0  0  0
 34 35  2  0  0  0  0
 34 65  1  0  0  0  0
 35 66  1  0  0  0  0
 36 37  2  0  0  0  0
 36 67  1  0  0  0  0
 37 68  1  0  0  0  0
M  END
> <PUBCHEM_COMPOUND_CID>
44328750

> <PUBCHEM_CONFORMER_RMSD>
1

> <PUBCHEM_CONFORMER_DIVERSEORDER>
1
99
18
62
59
45
61
86
15
2
98
85
56
41
43
66
6
65
90
60
27
64
78
12
53
97
16
54
30
5
84
52
44
87
31
39
69
95
63
79
35
89
23
68
80
88
8
13
4
46
22
67
58
17
70
76
77
72
3
100
34
10
36
94
48
74
73
20
81
93
71
19
42
11
75
47
82
33
49
32
21
91
9
40
96
38
25
28
92
24
14
55
83
29
51
50
37
57
7
26

> <PUBCHEM_MMFF94_PARTIAL_CHARGES>
43
1 -0.57
11 0.27
13 -0.05
14 -0.01
15 -0.14
16 -0.05
17 -0.01
18 0.09
2 -0.57
20 -0.15
21 0.3
22 0.26
23 0.44
25 0.27
26 -0.15
27 0.54
28 0.06
29 -0.15
3 -0.81
30 -0.15
31 0.57
32 -0.15
33 -0.15
34 -0.15
35 -0.15
36 -0.15
37 -0.15
4 -0.04
5 -0.05
56 0.27
59 0.37
6 -0.73
60 0.37
61 0.15
62 0.15
63 0.15
64 0.15
65 0.15
66 0.15
67 0.15
68 0.15
7 -0.73
8 0.27

> <PUBCHEM_EFFECTIVE_ROTOR_COUNT>
8.4

> <PUBCHEM_PHARMACOPHORE_FEATURES>
15
1 1 acceptor
1 2 acceptor
1 3 cation
1 4 cation
1 5 cation
1 5 donor
1 6 donor
1 7 donor
5 3 8 9 10 11 rings
5 4 13 14 19 20 rings
5 5 16 17 24 26 rings
5 6 15 18 23 27 rings
6 13 14 15 16 17 18 rings
6 19 20 29 30 34 35 rings
6 24 26 32 33 36 37 rings

> <PUBCHEM_HEAVY_ATOM_COUNT>
37

> <PUBCHEM_ATOM_DEF_STEREO_COUNT>
0

> <PUBCHEM_ATOM_UDEF_STEREO_COUNT>
1

> <PUBCHEM_BOND_DEF_STEREO_COUNT>
0

> <PUBCHEM_BOND_UDEF_STEREO_COUNT>
0

> <PUBCHEM_ISOTOPIC_ATOM_COUNT>
0

> <PUBCHEM_COMPONENT_COUNT>
1

> <PUBCHEM_CACTVS_TAUTO_COUNT>
14

> <PUBCHEM_CONFORMER_ID>
02A4672E00000001

> <PUBCHEM_MMFF94_ENERGY>
118.8939

> <PUBCHEM_FEATURE_SELFOVERLAP>
76.589

> <PUBCHEM_SHAPE_FINGERPRINT>
11285246 1 17625006857753664479
11578080 2 14692306035863939833
12156800 1 18409728495539214358
12539773 59 13051615016818777638
133893 2 16056607559793206610
14068700 675 17333936352990054206
14747281 78 17703801279393315393
14790565 3 18266440041428908761
20600515 1 18266159678647851664
20764821 26 18272093854535373319
20775438 99 18200015348829124487
20905425 154 17976820114101187696
21304303 94 18410302393438204101
21583282 1 17042350245785485889
23559900 14 18343025484077931510
3380486 77 18264198119685907346
3493558 16 13268295825039809938
35225 105 17107020285947177670
460360 51 18333735753732944443
513532 50 18128803158556750061
57527306 92 16372422355367782466

> <PUBCHEM_SHAPE_MULTIPOLES>
724.8
8.38
4.69
3.57
10.6
0.76
-2.22
-2.29
-1.51
0.57
-0.35
-5.84
0.82
0.94

> <PUBCHEM_SHAPE_SELFOVERLAP>
1627.279

> <PUBCHEM_SHAPE_VOLUME>
385.3

> <PUBCHEM_COORDINATE_TYPE>
2
5
10

$$$$
