71575642
  -OEChem-10052120443D

 43 46  0     0  0  0  0  0  0999 V2000
    8.2498   -2.1520    0.2022 Cl  0  0  0  0  0  0  0  0  0  0  0  0
    7.5170    2.0730   -0.9562 F   0  0  0  0  0  0  0  0  0  0  0  0
    8.7638    0.8883    0.3741 F   0  0  0  0  0  0  0  0  0  0  0  0
    8.4938    0.2736   -1.6881 F   0  0  0  0  0  0  0  0  0  0  0  0
   -4.7659    0.4764    1.1315 O   0  0  0  0  0  0  0  0  0  0  0  0
    1.5273   -1.1546    0.7885 O   0  0  0  0  0  0  0  0  0  0  0  0
    2.9712    0.5483    0.0927 N   0  0  0  0  0  0  0  0  0  0  0  0
    0.7075    0.9766    0.2632 N   0  0  0  0  0  0  0  0  0  0  0  0
   -8.8984   -0.5771   -0.6359 N   0  0  0  0  0  0  0  0  0  0  0  0
   -4.9250   -0.1720   -1.1128 N   0  0  0  0  0  0  0  0  0  0  0  0
   -7.0403   -0.7561   -2.1779 N   0  0  0  0  0  0  0  0  0  0  0  0
   -9.1434   -0.2518    0.6471 N   0  0  0  0  0  0  0  0  0  0  0  0
    4.2346   -0.0882    0.1155 C   0  0  0  0  0  0  0  0  0  0  0  0
    6.6257   -0.0048   -0.2204 C   0  0  0  0  0  0  0  0  0  0  0  0
   -0.6645    0.8508    0.4811 C   0  0  0  0  0  0  0  0  0  0  0  0
    5.3800    0.6221   -0.2443 C   0  0  0  0  0  0  0  0  0  0  0  0
   -6.9156   -0.0850    0.1647 C   0  0  0  0  0  0  0  0  0  0  0  0
   -3.4086    0.6003    0.9165 C   0  0  0  0  0  0  0  0  0  0  0  0
   -5.5373    0.0754    0.0701 C   0  0  0  0  0  0  0  0  0  0  0  0
    4.3351   -1.4256    0.4988 C   0  0  0  0  0  0  0  0  0  0  0  0
   -7.5813   -0.4942   -0.9774 C   0  0  0  0  0  0  0  0  0  0  0  0
    6.7262   -1.3422    0.1632 C   0  0  0  0  0  0  0  0  0  0  0  0
   -1.5070    1.9419    0.2678 C   0  0  0  0  0  0  0  0  0  0  0  0
   -1.1942   -0.3656    0.9118 C   0  0  0  0  0  0  0  0  0  0  0  0
   -2.8790    1.8167    0.4855 C   0  0  0  0  0  0  0  0  0  0  0  0
   -2.5662   -0.4909    1.1296 C   0  0  0  0  0  0  0  0  0  0  0  0
    5.5808   -2.0527    0.5228 C   0  0  0  0  0  0  0  0  0  0  0  0
    1.7210   -0.0006    0.4201 C   0  0  0  0  0  0  0  0  0  0  0  0
    7.8285    0.7901   -0.6146 C   0  0  0  0  0  0  0  0  0  0  0  0
   -7.9320    0.0467    1.1293 C   0  0  0  0  0  0  0  0  0  0  0  0
   -5.7034   -0.5667   -2.1484 C   0  0  0  0  0  0  0  0  0  0  0  0
    5.2887    1.6640   -0.5414 H   0  0  0  0  0  0  0  0  0  0  0  0
    3.4975   -2.0427    0.7905 H   0  0  0  0  0  0  0  0  0  0  0  0
    2.9796    1.5228   -0.1974 H   0  0  0  0  0  0  0  0  0  0  0  0
   -1.1081    2.8958   -0.0679 H   0  0  0  0  0  0  0  0  0  0  0  0
   -0.6102   -1.2552    1.0991 H   0  0  0  0  0  0  0  0  0  0  0  0
   -3.5295    2.6709    0.3184 H   0  0  0  0  0  0  0  0  0  0  0  0
   -2.9734   -1.4406    1.4662 H   0  0  0  0  0  0  0  0  0  0  0  0
    1.0179    1.8930   -0.0498 H   0  0  0  0  0  0  0  0  0  0  0  0
    5.6435   -3.0956    0.8234 H   0  0  0  0  0  0  0  0  0  0  0  0
   -7.8448    0.3474    2.1638 H   0  0  0  0  0  0  0  0  0  0  0  0
   -9.6788   -0.8464   -1.2219 H   0  0  0  0  0  0  0  0  0  0  0  0
   -5.1810   -0.7561   -3.0801 H   0  0  0  0  0  0  0  0  0  0  0  0
  1 22  1  0  0  0  0
  2 29  1  0  0  0  0
  3 29  1  0  0  0  0
  4 29  1  0  0  0  0
  5 18  1  0  0  0  0
  5 19  1  0  0  0  0
  6 28  2  0  0  0  0
  7 13  1  0  0  0  0
  7 28  1  0  0  0  0
  7 34  1  0  0  0  0
  8 15  1  0  0  0  0
  8 28  1  0  0  0  0
  8 39  1  0  0  0  0
  9 12  1  0  0  0  0
  9 21  1  0  0  0  0
  9 42  1  0  0  0  0
 10 19  2  0  0  0  0
 10 31  1  0  0  0  0
 11 21  1  0  0  0  0
 11 31  2  0  0  0  0
 12 30  2  0  0  0  0
 13 16  2  0  0  0  0
 13 20  1  0  0  0  0
 14 16  1  0  0  0  0
 14 22  2  0  0  0  0
 14 29  1  0  0  0  0
 15 23  2  0  0  0  0
 15 24  1  0  0  0  0
 16 32  1  0  0  0  0
 17 19  1  0  0  0  0
 17 21  2  0  0  0  0
 17 30  1  0  0  0  0
 18 25  2  0  0  0  0
 18 26  1  0  0  0  0
 20 27  2  0  0  0  0
 20 33  1  0  0  0  0
 22 27  1  0  0  0  0
 23 25  1  0  0  0  0
 23 35  1  0  0  0  0
 24 26  2  0  0  0  0
 24 36  1  0  0  0  0
 25 37  1  0  0  0  0
 26 38  1  0  0  0  0
 27 40  1  0  0  0  0
 30 41  1  0  0  0  0
 31 43  1  0  0  0  0
M  END
> <PUBCHEM_COMPOUND_CID>
71575642

> <PUBCHEM_CONFORMER_RMSD>
1

> <PUBCHEM_CONFORMER_DIVERSEORDER>
2
64
41
49
38
90
95
16
65
105
25
58
13
110
73
91
107
21
51
70
69
18
4
31
94
3
77
93
39
10
55
52
1
35
36
53
102
66
20
24
68
99
75
54
11
47
82
97
56
96
15
60
83
103
32
63
26
17
8
98
30
23
42
46
22
57
80
86
12
92
7
59
43
84
88
29
40
6
74
109
101
108
81
45
79
37
19
85
27
61
76
104
106
34
72
14
28
50
71
33
9
78
87
100
67
89
5
48
62
44

> <PUBCHEM_MMFF94_PARTIAL_CHARGES>
42
1 -0.18
10 -0.62
11 -0.57
12 -0.71
13 0.12
14 -0.14
15 0.12
16 -0.15
18 0.08
19 0.39
2 -0.34
20 -0.15
21 0.11
22 0.18
23 -0.15
24 -0.15
25 -0.15
26 -0.15
27 -0.15
28 0.69
29 1.16
3 -0.34
30 0.14
31 0.47
32 0.15
33 0.15
34 0.37
35 0.15
36 0.15
37 0.15
38 0.15
39 0.37
4 -0.34
40 0.15
41 0.15
42 0.27
43 0.15
5 -0.17
6 -0.57
7 -0.55
8 -0.55
9 0.3

> <PUBCHEM_EFFECTIVE_ROTOR_COUNT>
7

> <PUBCHEM_PHARMACOPHORE_FEATURES>
10
1 12 acceptor
1 6 acceptor
1 7 donor
1 8 donor
1 9 donor
3 10 11 31 cation
5 9 12 17 21 30 rings
6 10 11 17 19 21 31 rings
6 13 14 16 20 22 27 rings
6 15 18 23 24 25 26 rings

> <PUBCHEM_HEAVY_ATOM_COUNT>
31

> <PUBCHEM_ATOM_DEF_STEREO_COUNT>
0

> <PUBCHEM_ATOM_UDEF_STEREO_COUNT>
0

> <PUBCHEM_BOND_DEF_STEREO_COUNT>
0

> <PUBCHEM_BOND_UDEF_STEREO_COUNT>
0

> <PUBCHEM_ISOTOPIC_ATOM_COUNT>
0

> <PUBCHEM_COMPONENT_COUNT>
1

> <PUBCHEM_CACTVS_TAUTO_COUNT>
12

> <PUBCHEM_CONFORMER_ID>
0444285A00000002

> <PUBCHEM_MMFF94_ENERGY>
85.3127

> <PUBCHEM_FEATURE_SELFOVERLAP>
50.91

> <PUBCHEM_SHAPE_FINGERPRINT>
10 15 12031784768810804043
10076449 9 18411418419215323937
10162869 55 18333729105862262282
10299344 5 17988924470329038811
10391435 84 18114181981732196490
10533779 1 17971763418643086308
10533779 47 12031517622066741037
11135609 127 17168716357520404284
11135926 11 18040439858951198467
11476731 38 18408890654582774856
11524674 6 14692564438682069661
11672396 167 18189331265825899874
12082328 90 18114179705895472741
12089408 11 18130791144077660923
12144603 126 18272092661204027385
13885169 127 15554453981423481803
14068700 675 17703789223937158473
14118638 360 18261395503808248232
14150023 24 9655580695238495089
14251764 18 18272091586691913984
14251764 46 17749109993869610633
14344974 52 15936412282509903623
1454969 45 18343021086174124454
150020 25 17313103046693369183
15064986 266 18187371978558392849
15131766 46 15794010215022978174
15183329 4 18409722954868047267
15419008 47 17022897960886544197
15461852 350 18130792239263068805
1577012 14 18337957787888980768
15849732 13 17167865270531694407
16120349 18 18261394473158651608
1818759 1 17989491831404147703
18608769 82 15554445210588781460
20105231 36 13614525164758036556
2026 5 18055917594174014638
20554085 129 15430032184678445480
21095086 128 17418381273006627172
21150785 3 18341894099740568252
21360443 120 18343584032286889679
21403212 168 9295293837492325329
21591340 7 7925907067799014169
21792961 116 17240484676467071241
23389318 12 18341327868532457420
23522609 53 17986418683203790096
23559900 14 18261393407220961128
23576562 1 17168989053631414911
249057 3 16732989751327914459
2747138 104 14836402540779023978
3178227 256 12463569582846690692
4073 2 17603882121918319338
4325135 7 17775287162007866085
44389302 135 17488740070141501526
44802255 64 16515396371060580371
45377200 153 16916788526349216118
4625314 4 16773797017207115889
4874694 18 18040715888373588362
5219985 9 18131912659134787041
54039377 194 18343020026292927671
5470011 282 18187362108211681518
5969126 39 18411132507690741133
6081469 158 17530963566945984220
6201320 215 14563071616756952863
9953998 17 14620790505869715213

> <PUBCHEM_SHAPE_MULTIPOLES>
576.39
33.57
1.62
1.32
4.72
0.06
-0.61
-6.56
-7.93
2.98
0.04
-2.02
-0.2
-2.33

> <PUBCHEM_SHAPE_SELFOVERLAP>
1269.205

> <PUBCHEM_SHAPE_VOLUME>
310.1

> <PUBCHEM_COORDINATE_TYPE>
2
5
10

$$$$
