24905207
  -OEChem-10052115143D

 41 44  0     0  0  0  0  0  0999 V2000
   -5.7931    0.1535   -0.2051 O   0  0  0  0  0  0  0  0  0  0  0  0
    3.8679    1.5452    0.2647 N   0  0  0  0  0  0  0  0  0  0  0  0
    2.5721    1.8516    0.0678 N   0  0  0  0  0  0  0  0  0  0  0  0
    5.3153   -0.3925    0.3770 N   0  0  0  0  0  0  0  0  0  0  0  0
    4.0768   -2.4649    0.0292 N   0  0  0  0  0  0  0  0  0  0  0  0
    1.7239   -2.5099   -0.3702 N   0  0  0  0  0  0  0  0  0  0  0  0
    1.9935    0.6588   -0.1099 C   0  0  0  0  0  0  0  0  0  0  0  0
    0.5803    0.5800   -0.3522 C   0  0  0  0  0  0  0  0  0  0  0  0
    2.9092   -0.4067   -0.0279 C   0  0  0  0  0  0  0  0  0  0  0  0
   -1.6899    0.3831    0.4993 C   0  0  0  0  0  0  0  0  0  0  0  0
   -2.1835    0.4254   -0.8266 C   0  0  0  0  0  0  0  0  0  0  0  0
    4.1248    0.2073    0.2176 C   0  0  0  0  0  0  0  0  0  0  0  0
   -0.3052    0.4615    0.7194 C   0  0  0  0  0  0  0  0  0  0  0  0
    0.0951    0.6218   -1.6561 C   0  0  0  0  0  0  0  0  0  0  0  0
   -1.2776    0.5452   -1.8931 C   0  0  0  0  0  0  0  0  0  0  0  0
    2.9092   -1.7945   -0.1217 C   0  0  0  0  0  0  0  0  0  0  0  0
   -3.5682    0.3471   -1.0466 C   0  0  0  0  0  0  0  0  0  0  0  0
   -2.5957    0.2635    1.5659 C   0  0  0  0  0  0  0  0  0  0  0  0
   -4.4537    0.2285    0.0249 C   0  0  0  0  0  0  0  0  0  0  0  0
   -3.9685    0.1867    1.3287 C   0  0  0  0  0  0  0  0  0  0  0  0
    4.8223    2.6034    0.4963 C   0  0  0  0  0  0  0  0  0  0  0  0
    5.1913   -1.7326    0.2658 C   0  0  0  0  0  0  0  0  0  0  0  0
   -6.5724   -0.5883    0.7320 C   0  0  0  0  0  0  0  0  0  0  0  0
   -7.7738   -1.1732    0.0207 C   0  0  0  0  0  0  0  0  0  0  0  0
    0.0808    0.4288    1.7377 H   0  0  0  0  0  0  0  0  0  0  0  0
    0.7724    0.7133   -2.5021 H   0  0  0  0  0  0  0  0  0  0  0  0
   -1.6347    0.5795   -2.9204 H   0  0  0  0  0  0  0  0  0  0  0  0
   -3.9642    0.3782   -2.0601 H   0  0  0  0  0  0  0  0  0  0  0  0
   -2.2387    0.2352    2.5933 H   0  0  0  0  0  0  0  0  0  0  0  0
   -4.6248    0.1232    2.1915 H   0  0  0  0  0  0  0  0  0  0  0  0
    4.8170    3.2653   -0.3734 H   0  0  0  0  0  0  0  0  0  0  0  0
    4.5183    3.1480    1.3939 H   0  0  0  0  0  0  0  0  0  0  0  0
    5.8207    2.1839    0.6373 H   0  0  0  0  0  0  0  0  0  0  0  0
    6.1081   -2.3006    0.3814 H   0  0  0  0  0  0  0  0  0  0  0  0
    0.8393   -2.0381   -0.4866 H   0  0  0  0  0  0  0  0  0  0  0  0
    1.7685   -3.5184   -0.4310 H   0  0  0  0  0  0  0  0  0  0  0  0
   -6.0066   -1.4240    1.1627 H   0  0  0  0  0  0  0  0  0  0  0  0
   -6.9055    0.0810    1.5329 H   0  0  0  0  0  0  0  0  0  0  0  0
   -8.3776   -0.3798   -0.4322 H   0  0  0  0  0  0  0  0  0  0  0  0
   -7.4566   -1.8346   -0.7924 H   0  0  0  0  0  0  0  0  0  0  0  0
   -8.4011   -1.7413    0.7135 H   0  0  0  0  0  0  0  0  0  0  0  0
  1 19  1  0  0  0  0
  1 23  1  0  0  0  0
  2  3  1  0  0  0  0
  2 12  1  0  0  0  0
  2 21  1  0  0  0  0
  3  7  2  0  0  0  0
  4 12  2  0  0  0  0
  4 22  1  0  0  0  0
  5 16  1  0  0  0  0
  5 22  2  0  0  0  0
  6 16  1  0  0  0  0
  6 35  1  0  0  0  0
  6 36  1  0  0  0  0
  7  8  1  0  0  0  0
  7  9  1  0  0  0  0
  8 13  2  0  0  0  0
  8 14  1  0  0  0  0
  9 12  1  0  0  0  0
  9 16  2  0  0  0  0
 10 11  2  0  0  0  0
 10 13  1  0  0  0  0
 10 18  1  0  0  0  0
 11 15  1  0  0  0  0
 11 17  1  0  0  0  0
 13 25  1  0  0  0  0
 14 15  2  0  0  0  0
 14 26  1  0  0  0  0
 15 27  1  0  0  0  0
 17 19  2  0  0  0  0
 17 28  1  0  0  0  0
 18 20  2  0  0  0  0
 18 29  1  0  0  0  0
 19 20  1  0  0  0  0
 20 30  1  0  0  0  0
 21 31  1  0  0  0  0
 21 32  1  0  0  0  0
 21 33  1  0  0  0  0
 22 34  1  0  0  0  0
 23 24  1  0  0  0  0
 23 37  1  0  0  0  0
 23 38  1  0  0  0  0
 24 39  1  0  0  0  0
 24 40  1  0  0  0  0
 24 41  1  0  0  0  0
M  END
> <PUBCHEM_COMPOUND_CID>
24905207

> <PUBCHEM_CONFORMER_RMSD>
0.6

> <PUBCHEM_CONFORMER_DIVERSEORDER>
1
10
7
9
8
2
3
4
6
5

> <PUBCHEM_MMFF94_PARTIAL_CHARGES>
29
1 -0.36
12 0.11
13 -0.15
14 -0.15
15 -0.15
16 0.41
17 -0.15
18 -0.15
19 0.08
2 0.31
20 -0.15
21 0.26
22 0.47
23 0.28
25 0.15
26 0.15
27 0.15
28 0.15
29 0.15
3 -0.71
30 0.15
34 0.15
35 0.4
36 0.4
4 -0.57
5 -0.62
6 -0.9
7 0.23
8 0.05

> <PUBCHEM_EFFECTIVE_ROTOR_COUNT>
3

> <PUBCHEM_PHARMACOPHORE_FEATURES>
10
1 1 acceptor
1 3 acceptor
1 6 cation
1 6 donor
3 2 4 12 cation
3 4 5 22 cation
5 2 3 7 9 12 rings
6 10 11 17 18 19 20 rings
6 4 5 9 12 16 22 rings
6 8 10 11 13 14 15 rings

> <PUBCHEM_HEAVY_ATOM_COUNT>
24

> <PUBCHEM_ATOM_DEF_STEREO_COUNT>
0

> <PUBCHEM_ATOM_UDEF_STEREO_COUNT>
0

> <PUBCHEM_BOND_DEF_STEREO_COUNT>
0

> <PUBCHEM_BOND_UDEF_STEREO_COUNT>
0

> <PUBCHEM_ISOTOPIC_ATOM_COUNT>
0

> <PUBCHEM_COMPONENT_COUNT>
1

> <PUBCHEM_CACTVS_TAUTO_COUNT>
5

> <PUBCHEM_CONFORMER_ID>
017C05F700000001

> <PUBCHEM_MMFF94_ENERGY>
71.9061

> <PUBCHEM_FEATURE_SELFOVERLAP>
51.052

> <PUBCHEM_SHAPE_FINGERPRINT>
10165383 225 18264491857739266092
10670039 82 15625681448013786840
11595378 159 16845292674803359537
12107183 9 17552368678452245249
12236239 1 17632294566450362137
12596602 18 18131072645346512267
12616971 3 17846489331488301869
12730499 353 18408041840549533192
12788726 201 16988854864871401937
12916748 109 14764353729711391025
13533116 47 18342458144710118849
13583140 156 18128822017874392937
13685833 64 18259989267027666259
13782708 43 17968373455455336891
13862211 1 15864345879146139001
13955234 65 18412536627120238664
14341114 328 17632581560940089639
14386348 63 17676209047999874226
15183329 4 13695586642525707327
15475509 35 17023728036926298672
15961568 22 16226339217614033420
16752209 62 15430034322938733317
17492 89 18057892329029031766
17844677 252 18410015403391396661
1813 80 17843975750109284950
18222031 100 16732704956389093501
19141452 34 18186524332376402083
19377110 9 17417823829074964875
200 152 18342452608439427137
20028762 73 18272650108661829494
20645477 70 18335699421286213554
21033650 10 14997693062510782022
21065198 48 18202009802212053785
21197605 99 18339366387034054347
21267235 1 18271810077967595934
21344244 78 17988914545002860976
21623969 137 18409168800722740082
2215653 11 17313105250518026739
22224240 67 18335416932776517904
23536379 177 18411700976876974377
23557571 272 17168141191946665852
23559900 14 16515979124395397132
23569914 2 9345680564317551027
23569943 247 17532927195876828099
239999 70 17749109998148825048
3633792 109 18337103485456726919
4073 2 18115311201775606147
4340502 62 18342175600265647039
465052 167 18343304742851861950
474 4 18057595667781484664
5104073 3 18337382734612354336
5718773 13 17823411596456273482
59755656 215 17022900143014448411
8272917 22 18343586226724241268
8988823 20 18409449197657157333

> <PUBCHEM_SHAPE_MULTIPOLES>
463.13
15.38
1.98
1.24
18.14
0.57
-0.26
4.24
3.12
-3.95
0.07
1.02
-0.26
0.51

> <PUBCHEM_SHAPE_SELFOVERLAP>
1034.782

> <PUBCHEM_SHAPE_VOLUME>
246.4

> <PUBCHEM_COORDINATE_TYPE>
2
5
10

$$$$
