49830756
  -OEChem-10052115183D

 52 56  0     1  0  0  0  0  0999 V2000
    5.2687   -3.1620    0.5598 O   0  0  0  0  0  0  0  0  0  0  0  0
   -3.3768   -1.5696   -1.3144 O   0  0  0  0  0  0  0  0  0  0  0  0
   -8.6793    0.9589    0.9140 O   0  0  0  0  0  0  0  0  0  0  0  0
    4.0724   -0.1755    0.0082 N   0  0  0  0  0  0  0  0  0  0  0  0
    4.7094    2.1410    0.2139 N   0  0  0  0  0  0  0  0  0  0  0  0
    2.8307    3.6690   -0.0386 N   0  0  0  0  0  0  0  0  0  0  0  0
    0.6057    2.9201   -0.4464 N   0  0  0  0  0  0  0  0  0  0  0  0
    5.4382   -0.8075    0.2121 C   0  0  1  0  0  0  0  0  0  0  0  0
    5.7019   -1.1140    1.6764 C   0  0  0  0  0  0  0  0  0  0  0  0
    5.6491   -2.1811   -0.4169 C   0  0  0  0  0  0  0  0  0  0  0  0
    5.1642   -2.5218    1.8380 C   0  0  0  0  0  0  0  0  0  0  0  0
    3.8030    1.1673    0.0195 C   0  0  0  0  0  0  0  0  0  0  0  0
    2.9132   -0.8728   -0.2170 C   0  0  0  0  0  0  0  0  0  0  0  0
    2.4416    1.3332   -0.2033 C   0  0  0  0  0  0  0  0  0  0  0  0
    1.8859    0.0368   -0.3520 C   0  0  0  0  0  0  0  0  0  0  0  0
    0.5332   -0.3746   -0.5983 C   0  0  0  0  0  0  0  0  0  0  0  0
    1.9676    2.6441   -0.2277 C   0  0  0  0  0  0  0  0  0  0  0  0
   -0.3261   -0.6255    0.4714 C   0  0  0  0  0  0  0  0  0  0  0  0
    0.0785   -0.5254   -1.9084 C   0  0  0  0  0  0  0  0  0  0  0  0
    4.1303    3.3581    0.1676 C   0  0  0  0  0  0  0  0  0  0  0  0
   -1.6400   -1.0274    0.2312 C   0  0  0  0  0  0  0  0  0  0  0  0
   -1.2353   -0.9273   -2.1487 C   0  0  0  0  0  0  0  0  0  0  0  0
   -2.0945   -1.1783   -1.0789 C   0  0  0  0  0  0  0  0  0  0  0  0
   -4.3808   -0.9609   -0.5802 C   0  0  0  0  0  0  0  0  0  0  0  0
   -5.3963   -1.7319   -0.0145 C   0  0  0  0  0  0  0  0  0  0  0  0
   -4.3771    0.4232   -0.4070 C   0  0  0  0  0  0  0  0  0  0  0  0
   -6.4044    0.2653    0.8975 C   0  0  0  0  0  0  0  0  0  0  0  0
   -6.4081   -1.1188    0.7242 C   0  0  0  0  0  0  0  0  0  0  0  0
   -5.3889    1.0363    0.3317 C   0  0  0  0  0  0  0  0  0  0  0  0
   -7.4860    0.9213    1.6869 C   0  0  0  0  0  0  0  0  0  0  0  0
    6.1393   -0.0756   -0.2042 H   0  0  0  0  0  0  0  0  0  0  0  0
    6.7844   -1.1204    1.8538 H   0  0  0  0  0  0  0  0  0  0  0  0
    5.2498   -0.4107    2.3819 H   0  0  0  0  0  0  0  0  0  0  0  0
    6.7111   -2.3422   -0.6341 H   0  0  0  0  0  0  0  0  0  0  0  0
    5.0854   -2.3414   -1.3404 H   0  0  0  0  0  0  0  0  0  0  0  0
    4.1080   -2.5158    2.1265 H   0  0  0  0  0  0  0  0  0  0  0  0
    5.7212   -3.0970    2.5831 H   0  0  0  0  0  0  0  0  0  0  0  0
    2.9031   -1.9538   -0.2599 H   0  0  0  0  0  0  0  0  0  0  0  0
    0.0139   -0.5167    1.4987 H   0  0  0  0  0  0  0  0  0  0  0  0
    0.7351   -0.3331   -2.7537 H   0  0  0  0  0  0  0  0  0  0  0  0
    4.7959    4.2016    0.3157 H   0  0  0  0  0  0  0  0  0  0  0  0
    0.3013    3.8844   -0.4570 H   0  0  0  0  0  0  0  0  0  0  0  0
   -0.0654    2.1803   -0.5909 H   0  0  0  0  0  0  0  0  0  0  0  0
   -2.2802   -1.2379    1.0837 H   0  0  0  0  0  0  0  0  0  0  0  0
   -1.5842   -1.0425   -3.1713 H   0  0  0  0  0  0  0  0  0  0  0  0
   -5.4038   -2.8103   -0.1463 H   0  0  0  0  0  0  0  0  0  0  0  0
   -3.6107    1.0499   -0.8554 H   0  0  0  0  0  0  0  0  0  0  0  0
   -7.1945   -1.7293    1.1602 H   0  0  0  0  0  0  0  0  0  0  0  0
   -5.3770    2.1162    0.4531 H   0  0  0  0  0  0  0  0  0  0  0  0
   -7.2178    1.9466    1.9639 H   0  0  0  0  0  0  0  0  0  0  0  0
   -7.6772    0.3652    2.6114 H   0  0  0  0  0  0  0  0  0  0  0  0
   -9.3612    1.3820    1.4631 H   0  0  0  0  0  0  0  0  0  0  0  0
  1 10  1  0  0  0  0
  1 11  1  0  0  0  0
  2 23  1  0  0  0  0
  2 24  1  0  0  0  0
  3 30  1  0  0  0  0
  3 52  1  0  0  0  0
  4  8  1  0  0  0  0
  4 12  1  0  0  0  0
  4 13  1  0  0  0  0
  5 12  2  0  0  0  0
  5 20  1  0  0  0  0
  6 17  1  0  0  0  0
  6 20  2  0  0  0  0
  7 17  1  0  0  0  0
  7 42  1  0  0  0  0
  7 43  1  0  0  0  0
  8  9  1  0  0  0  0
  8 10  1  0  0  0  0
  8 31  1  0  0  0  0
  9 11  1  0  0  0  0
  9 32  1  0  0  0  0
  9 33  1  0  0  0  0
 10 34  1  0  0  0  0
 10 35  1  0  0  0  0
 11 36  1  0  0  0  0
 11 37  1  0  0  0  0
 12 14  1  0  0  0  0
 13 15  2  0  0  0  0
 13 38  1  0  0  0  0
 14 15  1  0  0  0  0
 14 17  2  0  0  0  0
 15 16  1  0  0  0  0
 16 18  2  0  0  0  0
 16 19  1  0  0  0  0
 18 21  1  0  0  0  0
 18 39  1  0  0  0  0
 19 22  2  0  0  0  0
 19 40  1  0  0  0  0
 20 41  1  0  0  0  0
 21 23  2  0  0  0  0
 21 44  1  0  0  0  0
 22 23  1  0  0  0  0
 22 45  1  0  0  0  0
 24 25  2  0  0  0  0
 24 26  1  0  0  0  0
 25 28  1  0  0  0  0
 25 46  1  0  0  0  0
 26 29  2  0  0  0  0
 26 47  1  0  0  0  0
 27 28  2  0  0  0  0
 27 29  1  0  0  0  0
 27 30  1  0  0  0  0
 28 48  1  0  0  0  0
 29 49  1  0  0  0  0
 30 50  1  0  0  0  0
 30 51  1  0  0  0  0
M  END
> <PUBCHEM_COMPOUND_CID>
49830756

> <PUBCHEM_CONFORMER_RMSD>
0.8

> <PUBCHEM_CONFORMER_DIVERSEORDER>
1
23
18
33
28
26
17
38
19
51
32
40
58
22
5
43
44
41
6
47
54
20
24
31
15
30
55
3
56
48
46
25
29
11
42
50
37
53
2
34
57
35
14
16
13
52
39
4
21
7
12
45
10
49
8
9
27
36

> <PUBCHEM_MMFF94_PARTIAL_CHARGES>
41
1 -0.56
10 0.28
11 0.28
12 0.11
13 -0.3
15 -0.05
16 0.05
17 0.41
18 -0.15
19 -0.15
2 -0.17
20 0.47
21 -0.15
22 -0.15
23 0.08
24 0.08
25 -0.15
26 -0.15
27 -0.14
28 -0.15
29 -0.15
3 -0.68
30 0.42
38 0.15
39 0.15
4 0.05
40 0.15
41 0.15
42 0.4
43 0.4
44 0.15
45 0.15
46 0.15
47 0.15
48 0.15
49 0.15
5 -0.57
52 0.4
6 -0.62
7 -0.9
8 0.26

> <PUBCHEM_EFFECTIVE_ROTOR_COUNT>
6

> <PUBCHEM_PHARMACOPHORE_FEATURES>
13
1 1 acceptor
1 2 acceptor
1 3 acceptor
1 3 donor
1 7 cation
1 7 donor
3 4 5 12 cation
3 5 6 20 cation
5 1 8 9 10 11 rings
5 4 12 13 14 15 rings
6 16 18 19 21 22 23 rings
6 24 25 26 27 28 29 rings
6 5 6 12 14 17 20 rings

> <PUBCHEM_HEAVY_ATOM_COUNT>
30

> <PUBCHEM_ATOM_DEF_STEREO_COUNT>
0

> <PUBCHEM_ATOM_UDEF_STEREO_COUNT>
1

> <PUBCHEM_BOND_DEF_STEREO_COUNT>
0

> <PUBCHEM_BOND_UDEF_STEREO_COUNT>
0

> <PUBCHEM_ISOTOPIC_ATOM_COUNT>
0

> <PUBCHEM_COMPONENT_COUNT>
1

> <PUBCHEM_CACTVS_TAUTO_COUNT>
4

> <PUBCHEM_CONFORMER_ID>
02F85B6400000001

> <PUBCHEM_MMFF94_ENERGY>
90.5711

> <PUBCHEM_FEATURE_SELFOVERLAP>
66.251

> <PUBCHEM_SHAPE_FINGERPRINT>
10554248 39 18060696191496843733
10595046 47 18127125510098041751
11370993 144 18261392307909539583
11399510 152 18121224444229735827
11405975 8 18338512053212930758
11475781 23 14620797093885284517
12107183 9 18342457015318660815
12166972 35 17894919520273138701
12236239 1 18131069372149078119
12422481 6 18131066000436136340
12616971 3 18272929453412986295
13167372 99 18272656761828998969
13533116 47 18333731334164285882
13617811 41 8934708968755985071
13673619 4 17603582989587327246
13782708 43 17458336420915304547
13785724 45 18127417757090653398
14114211 80 17394177959446888604
14294032 229 16772961462365645719
14341114 176 18334015021064939413
14347424 109 18413105065493244368
14849402 71 18262242226029295612
15021287 119 18342164575311458647
15183329 4 18272086106382255191
15238133 3 17561361815957827562
15250474 111 18057026128889575126
15348495 7 18334298712292488003
15352257 5 16588027883485800203
15419008 145 18338234839350362377
15475509 35 17240751862209173994
15475509 84 18202561748739312048
1577012 14 18201721795059343749
15840311 113 17274816926575378210
19301679 30 18122623847881385706
19302320 297 18270977777888961737
20715895 44 17846226553110833341
21130935 74 18335423512793548875
21150785 3 10591754369192205243
21421861 104 18337658803095345536
21792964 463 18189637079464755669
22033318 11 18199203805683340113
22122407 14 18271258217493249865
22149856 69 11169902871643727565
2303208 19 17240194430814181559
23081809 10 18059570338913917975
23569943 247 17604977144651832147
24771293 8 18128798894398134330
249057 25 17988629853163853359
2838139 119 18342171147297418461
312425 54 18041562537542975867
3663271 9 18338518650878660179
3680242 22 18341622529143467985
4073 2 18043534025973105274
4093350 32 17846781845564580476
4144715 1 18335991951646147659
44880568 143 12823307771526908347
5104073 3 18338517551287787739
513202 73 17967809406296347005
5470011 282 10159696877153351769
6058803 2 17912632794240717670
6299153 45 18343026558299868761
86090 222 16950568735573074642

> <PUBCHEM_SHAPE_MULTIPOLES>
579.85
19.59
3.3
1.44
27.85
2.39
0.1
-2.97
-10.32
-6.14
-0.37
0.45
-0.66
-2.19

> <PUBCHEM_SHAPE_SELFOVERLAP>
1289.363

> <PUBCHEM_SHAPE_VOLUME>
309.1

> <PUBCHEM_COORDINATE_TYPE>
2
5
10

$$$$
