49830370
  -OEChem-10052115183D

 46 49  0     0  0  0  0  0  0999 V2000
   -9.4229   -0.2294    1.3632 Br  0  0  0  0  0  0  0  0  0  0  0  0
   -2.7899    0.1563   -1.2406 O   0  0  0  0  0  0  0  0  0  0  0  0
    6.2695   -1.6383   -0.2276 N   0  0  0  0  0  0  0  0  0  0  0  0
    5.3303   -2.5798   -0.0371 N   0  0  0  0  0  0  0  0  0  0  0  0
    2.9774   -2.4095    0.3150 N   0  0  0  0  0  0  0  0  0  0  0  0
   -1.9206    0.3032    0.9302 N   0  0  0  0  0  0  0  0  0  0  0  0
   -4.2029    0.1238    0.6226 N   0  0  0  0  0  0  0  0  0  0  0  0
    4.4212   -0.4799   -0.0022 C   0  0  0  0  0  0  0  0  0  0  0  0
    3.6274    0.6774    0.0619 C   0  0  0  0  0  0  0  0  0  0  0  0
    5.7892   -0.3565   -0.2177 C   0  0  0  0  0  0  0  0  0  0  0  0
    6.4271    0.8756   -0.3765 C   0  0  0  0  0  0  0  0  0  0  0  0
    2.2047    0.5815    0.2845 C   0  0  0  0  0  0  0  0  0  0  0  0
    4.2474    1.9234   -0.0949 C   0  0  0  0  0  0  0  0  0  0  0  0
    4.2072   -1.8713    0.0996 C   0  0  0  0  0  0  0  0  0  0  0  0
    5.6236    2.0186   -0.3102 C   0  0  0  0  0  0  0  0  0  0  0  0
    1.3345    0.4759   -0.8006 C   0  0  0  0  0  0  0  0  0  0  0  0
    1.6999    0.5940    1.5848 C   0  0  0  0  0  0  0  0  0  0  0  0
    7.8942    1.0085   -0.6079 C   0  0  0  0  0  0  0  0  0  0  0  0
   -0.5453    0.3959    0.7149 C   0  0  0  0  0  0  0  0  0  0  0  0
   -0.0404    0.3833   -0.5854 C   0  0  0  0  0  0  0  0  0  0  0  0
    0.3249    0.5013    1.8000 C   0  0  0  0  0  0  0  0  0  0  0  0
   -2.9594    0.1903   -0.0260 C   0  0  0  0  0  0  0  0  0  0  0  0
   -5.4855    0.0072    0.0368 C   0  0  0  0  0  0  0  0  0  0  0  0
   -6.6207   -0.0442    0.8459 C   0  0  0  0  0  0  0  0  0  0  0  0
   -5.6144   -0.0559   -1.3507 C   0  0  0  0  0  0  0  0  0  0  0  0
   -7.8846   -0.1588    0.2673 C   0  0  0  0  0  0  0  0  0  0  0  0
   -6.8784   -0.1704   -1.9291 C   0  0  0  0  0  0  0  0  0  0  0  0
   -8.0136   -0.2221   -1.1201 C   0  0  0  0  0  0  0  0  0  0  0  0
    3.6607    2.8390   -0.0506 H   0  0  0  0  0  0  0  0  0  0  0  0
    6.0702    3.0037   -0.4275 H   0  0  0  0  0  0  0  0  0  0  0  0
    7.2261   -1.9420   -0.3589 H   0  0  0  0  0  0  0  0  0  0  0  0
    1.7131    0.4641   -1.8202 H   0  0  0  0  0  0  0  0  0  0  0  0
    2.3645    0.6749    2.4418 H   0  0  0  0  0  0  0  0  0  0  0  0
    8.3501    1.5991    0.1936 H   0  0  0  0  0  0  0  0  0  0  0  0
    8.4003    0.0390   -0.6354 H   0  0  0  0  0  0  0  0  0  0  0  0
    8.0809    1.5086   -1.5640 H   0  0  0  0  0  0  0  0  0  0  0  0
   -0.6466    0.3044   -1.4765 H   0  0  0  0  0  0  0  0  0  0  0  0
   -0.0547    0.5120    2.8186 H   0  0  0  0  0  0  0  0  0  0  0  0
    2.1225   -1.8779    0.4195 H   0  0  0  0  0  0  0  0  0  0  0  0
    2.8522   -3.4150    0.3843 H   0  0  0  0  0  0  0  0  0  0  0  0
   -2.2123    0.3191    1.9043 H   0  0  0  0  0  0  0  0  0  0  0  0
   -4.1903    0.1639    1.6386 H   0  0  0  0  0  0  0  0  0  0  0  0
   -6.5167    0.0053    1.9277 H   0  0  0  0  0  0  0  0  0  0  0  0
   -4.7867   -0.0224   -2.0444 H   0  0  0  0  0  0  0  0  0  0  0  0
   -6.9802   -0.2197   -3.0094 H   0  0  0  0  0  0  0  0  0  0  0  0
   -8.9912   -0.3116   -1.5869 H   0  0  0  0  0  0  0  0  0  0  0  0
  1 26  1  0  0  0  0
  2 22  2  0  0  0  0
  3  4  1  0  0  0  0
  3 10  1  0  0  0  0
  3 31  1  0  0  0  0
  4 14  2  0  0  0  0
  5 14  1  0  0  0  0
  5 39  1  0  0  0  0
  5 40  1  0  0  0  0
  6 19  1  0  0  0  0
  6 22  1  0  0  0  0
  6 41  1  0  0  0  0
  7 22  1  0  0  0  0
  7 23  1  0  0  0  0
  7 42  1  0  0  0  0
  8  9  2  0  0  0  0
  8 10  1  0  0  0  0
  8 14  1  0  0  0  0
  9 12  1  0  0  0  0
  9 13  1  0  0  0  0
 10 11  2  0  0  0  0
 11 15  1  0  0  0  0
 11 18  1  0  0  0  0
 12 16  2  0  0  0  0
 12 17  1  0  0  0  0
 13 15  2  0  0  0  0
 13 29  1  0  0  0  0
 15 30  1  0  0  0  0
 16 20  1  0  0  0  0
 16 32  1  0  0  0  0
 17 21  2  0  0  0  0
 17 33  1  0  0  0  0
 18 34  1  0  0  0  0
 18 35  1  0  0  0  0
 18 36  1  0  0  0  0
 19 20  2  0  0  0  0
 19 21  1  0  0  0  0
 20 37  1  0  0  0  0
 21 38  1  0  0  0  0
 23 24  2  0  0  0  0
 23 25  1  0  0  0  0
 24 26  1  0  0  0  0
 24 43  1  0  0  0  0
 25 27  2  0  0  0  0
 25 44  1  0  0  0  0
 26 28  2  0  0  0  0
 27 28  1  0  0  0  0
 27 45  1  0  0  0  0
 28 46  1  0  0  0  0
M  END
> <PUBCHEM_COMPOUND_CID>
49830370

> <PUBCHEM_CONFORMER_RMSD>
0.8

> <PUBCHEM_CONFORMER_DIVERSEORDER>
2
16
26
13
7
27
30
20
4
17
12
15
8
14
21
23
28
11
18
1
19
5
29
3
6
25
10
9
24
22

> <PUBCHEM_MMFF94_PARTIAL_CHARGES>
40
1 -0.11
10 -0.15
11 -0.14
13 -0.15
14 0.37
15 -0.15
16 -0.15
17 -0.15
18 0.14
19 0.12
2 -0.57
20 -0.15
21 -0.15
22 0.69
23 0.12
24 -0.15
25 -0.15
26 0.11
27 -0.15
28 -0.15
29 0.15
3 0.3
30 0.15
31 0.27
32 0.15
33 0.15
37 0.15
38 0.15
39 0.4
4 -0.71
40 0.4
41 0.37
42 0.37
43 0.15
44 0.15
45 0.15
46 0.15
5 -0.88
6 -0.55
7 -0.55

> <PUBCHEM_EFFECTIVE_ROTOR_COUNT>
5

> <PUBCHEM_PHARMACOPHORE_FEATURES>
11
1 1 hydrophobe
1 2 acceptor
1 3 donor
1 5 donor
1 6 donor
1 7 donor
3 4 5 14 cation
5 3 4 8 10 14 rings
6 12 16 17 19 20 21 rings
6 23 24 25 26 27 28 rings
6 8 9 10 11 13 15 rings

> <PUBCHEM_HEAVY_ATOM_COUNT>
28

> <PUBCHEM_ATOM_DEF_STEREO_COUNT>
0

> <PUBCHEM_ATOM_UDEF_STEREO_COUNT>
0

> <PUBCHEM_BOND_DEF_STEREO_COUNT>
0

> <PUBCHEM_BOND_UDEF_STEREO_COUNT>
0

> <PUBCHEM_ISOTOPIC_ATOM_COUNT>
0

> <PUBCHEM_COMPONENT_COUNT>
1

> <PUBCHEM_CACTVS_TAUTO_COUNT>
309

> <PUBCHEM_CONFORMER_ID>
02F859E200000002

> <PUBCHEM_MMFF94_ENERGY>
84.4556

> <PUBCHEM_FEATURE_SELFOVERLAP>
55.961

> <PUBCHEM_SHAPE_FINGERPRINT>
10299344 5 18060701697818846613
10319688 140 17968930864738053450
11181472 205 18059586728688824769
11719270 70 15698002933468862181
12082328 90 18408324376947661945
12166972 35 18131630106248015553
12236239 1 17917998248424242640
12741549 16 17894903041602670748
13533116 47 18271805701179591522
14068700 675 16774080691755910537
14118638 360 18409166576230445656
14170010 4 18259705618623605972
14251764 18 17846779611675210239
14251764 46 18410577300945610848
14294032 229 16486153707851736209
14512766 119 16661753368618490189
150020 25 17749390347680852971
15119646 104 17917996044694823127
15183329 4 18341608218343761175
15198563 99 17895470311433213101
15328684 2 17346045442007791507
15352257 5 18410292536773492411
15419008 47 17531239578646122429
15419008 91 17313652850438200853
15510794 2 17894631461881566595
15840311 113 17203324555815890384
15849732 13 17749108911416695319
20157964 124 18407760352735419484
21150785 3 18113899373031753521
21267235 1 15913331320838629745
21344244 78 18059000698002778296
21792934 111 11455893537829694035
220451 1 18131909378090424223
221357 26 18187361017443436660
22224240 67 13262675958874628353
22956985 138 16484183297030857414
23081809 10 18060703883878339145
23516275 137 17987540155289734063
23522609 53 17702689742406120505
23559900 14 18337388356703237849
249057 3 18337391642669639164
255183 451 17771637754805731702
3004659 81 16702301290922752073
34797466 226 17967253117367501724
3633792 109 18335701611392623473
4073 2 18188493600150359634
4098825 35 18337670815686576541
45377200 153 18189336935362157003
5219985 9 17632295675106254953
59755656 215 17095520673814784339

> <PUBCHEM_SHAPE_MULTIPOLES>
551.39
27.81
1.61
1.36
40.01
0.86
0.01
1.41
-2.87
-4.65
0
2.52
-0.12
-0.31

> <PUBCHEM_SHAPE_SELFOVERLAP>
1208.784

> <PUBCHEM_SHAPE_VOLUME>
306.3

> <PUBCHEM_COORDINATE_TYPE>
2
5
10

$$$$
