25166868
  -OEChem-10052115173D

 40 43  0     0  0  0  0  0  0999 V2000
   -4.9813   -2.4963    0.2965 F   0  0  0  0  0  0  0  0  0  0  0  0
   -3.6646   -2.9332   -1.3707 F   0  0  0  0  0  0  0  0  0  0  0  0
   -2.8910   -2.9716    0.6613 F   0  0  0  0  0  0  0  0  0  0  0  0
   -4.5324    3.7923    0.3158 F   0  0  0  0  0  0  0  0  0  0  0  0
   -6.1377    2.4604   -0.2782 F   0  0  0  0  0  0  0  0  0  0  0  0
   -5.3566    2.3805    1.7496 F   0  0  0  0  0  0  0  0  0  0  0  0
    0.1706   -1.3423   -0.4277 N   0  0  0  0  0  0  0  0  0  0  0  0
    0.2825   -1.8189    0.8228 N   0  0  0  0  0  0  0  0  0  0  0  0
    1.5243   -1.5764    1.2276 N   0  0  0  0  0  0  0  0  0  0  0  0
    7.3888    0.9262    0.2345 N   0  0  0  0  0  0  0  0  0  0  0  0
    7.3544    1.9947   -0.5793 N   0  0  0  0  0  0  0  0  0  0  0  0
   -2.1017   -0.4367   -0.7293 C   0  0  0  0  0  0  0  0  0  0  0  0
   -1.0714   -1.4557   -1.1491 C   0  0  0  0  0  0  0  0  0  0  0  0
   -3.3569   -0.8331   -0.2680 C   0  0  0  0  0  0  0  0  0  0  0  0
   -1.7843    0.9193   -0.8091 C   0  0  0  0  0  0  0  0  0  0  0  0
    2.1817   -0.9422    0.2102 C   0  0  0  0  0  0  0  0  0  0  0  0
    3.5521   -0.5129    0.2628 C   0  0  0  0  0  0  0  0  0  0  0  0
   -4.2947    0.1264    0.1135 C   0  0  0  0  0  0  0  0  0  0  0  0
   -3.9775    1.4823    0.0335 C   0  0  0  0  0  0  0  0  0  0  0  0
    1.3344   -0.7829   -0.8574 C   0  0  0  0  0  0  0  0  0  0  0  0
   -2.7222    1.8788   -0.4278 C   0  0  0  0  0  0  0  0  0  0  0  0
    5.2938    1.0139   -0.4078 C   0  0  0  0  0  0  0  0  0  0  0  0
   -3.7182   -2.2794   -0.1737 C   0  0  0  0  0  0  0  0  0  0  0  0
    3.9499    0.6100   -0.4735 C   0  0  0  0  0  0  0  0  0  0  0  0
    6.1840    0.2927    0.3800 C   0  0  0  0  0  0  0  0  0  0  0  0
    4.4670   -1.2191    1.0461 C   0  0  0  0  0  0  0  0  0  0  0  0
    5.8082   -0.8294    1.1216 C   0  0  0  0  0  0  0  0  0  0  0  0
   -4.9794    2.5079    0.4440 C   0  0  0  0  0  0  0  0  0  0  0  0
    6.0784    2.0448   -0.9681 C   0  0  0  0  0  0  0  0  0  0  0  0
   -1.3896   -2.4954   -1.0480 H   0  0  0  0  0  0  0  0  0  0  0  0
   -0.8544   -1.3119   -2.2154 H   0  0  0  0  0  0  0  0  0  0  0  0
   -0.8171    1.2504   -1.1765 H   0  0  0  0  0  0  0  0  0  0  0  0
   -5.2761   -0.1701    0.4752 H   0  0  0  0  0  0  0  0  0  0  0  0
    1.4446   -0.3488   -1.8418 H   0  0  0  0  0  0  0  0  0  0  0  0
   -2.4574    2.9302   -0.4992 H   0  0  0  0  0  0  0  0  0  0  0  0
    3.2533    1.1805   -1.0807 H   0  0  0  0  0  0  0  0  0  0  0  0
    4.1555   -2.0938    1.6142 H   0  0  0  0  0  0  0  0  0  0  0  0
    6.5206   -1.3769    1.7287 H   0  0  0  0  0  0  0  0  0  0  0  0
    5.7713    2.8304   -1.6440 H   0  0  0  0  0  0  0  0  0  0  0  0
    8.2724    0.6801    0.6629 H   0  0  0  0  0  0  0  0  0  0  0  0
  1 23  1  0  0  0  0
  2 23  1  0  0  0  0
  3 23  1  0  0  0  0
  4 28  1  0  0  0  0
  5 28  1  0  0  0  0
  6 28  1  0  0  0  0
  7  8  1  0  0  0  0
  7 13  1  0  0  0  0
  7 20  1  0  0  0  0
  8  9  2  0  0  0  0
  9 16  1  0  0  0  0
 10 11  1  0  0  0  0
 10 25  1  0  0  0  0
 10 40  1  0  0  0  0
 11 29  2  0  0  0  0
 12 13  1  0  0  0  0
 12 14  2  0  0  0  0
 12 15  1  0  0  0  0
 13 30  1  0  0  0  0
 13 31  1  0  0  0  0
 14 18  1  0  0  0  0
 14 23  1  0  0  0  0
 15 21  2  0  0  0  0
 15 32  1  0  0  0  0
 16 17  1  0  0  0  0
 16 20  2  0  0  0  0
 17 24  2  0  0  0  0
 17 26  1  0  0  0  0
 18 19  2  0  0  0  0
 18 33  1  0  0  0  0
 19 21  1  0  0  0  0
 19 28  1  0  0  0  0
 20 34  1  0  0  0  0
 21 35  1  0  0  0  0
 22 24  1  0  0  0  0
 22 25  2  0  0  0  0
 22 29  1  0  0  0  0
 24 36  1  0  0  0  0
 25 27  1  0  0  0  0
 26 27  2  0  0  0  0
 26 37  1  0  0  0  0
 27 38  1  0  0  0  0
 29 39  1  0  0  0  0
M  END
> <PUBCHEM_COMPOUND_CID>
25166868

> <PUBCHEM_CONFORMER_RMSD>
0.8

> <PUBCHEM_CONFORMER_DIVERSEORDER>
5
22
48
19
42
44
32
26
34
24
37
15
39
52
38
46
8
29
31
27
49
11
14
45
50
7
40
28
33
25
4
21
20
36
41
35
17
13
47
51
10
43
9
3
6
23
30
12
1
16
2
18

> <PUBCHEM_MMFF94_PARTIAL_CHARGES>
37
1 -0.34
10 0.3
11 -0.71
12 -0.14
13 0.4
14 -0.14
15 -0.15
16 0.17
17 0.05
18 -0.15
19 -0.14
2 -0.34
20 -0.3
21 -0.15
23 1.16
24 -0.15
25 -0.15
26 -0.15
27 -0.15
28 1.16
29 0.14
3 -0.34
32 0.15
33 0.15
34 0.15
35 0.15
36 0.15
37 0.15
38 0.15
39 0.15
4 -0.34
40 0.27
5 -0.34
6 -0.34
7 0.31
8 -0.42
9 -0.23

> <PUBCHEM_EFFECTIVE_ROTOR_COUNT>
5

> <PUBCHEM_PHARMACOPHORE_FEATURES>
6
1 10 donor
1 11 acceptor
5 10 11 22 25 29 rings
5 7 8 9 16 20 rings
6 12 14 15 18 19 21 rings
6 17 22 24 25 26 27 rings

> <PUBCHEM_HEAVY_ATOM_COUNT>
29

> <PUBCHEM_ATOM_DEF_STEREO_COUNT>
0

> <PUBCHEM_ATOM_UDEF_STEREO_COUNT>
0

> <PUBCHEM_BOND_DEF_STEREO_COUNT>
0

> <PUBCHEM_BOND_UDEF_STEREO_COUNT>
0

> <PUBCHEM_ISOTOPIC_ATOM_COUNT>
0

> <PUBCHEM_COMPONENT_COUNT>
1

> <PUBCHEM_CACTVS_TAUTO_COUNT>
2

> <PUBCHEM_CONFORMER_ID>
0180041400000005

> <PUBCHEM_MMFF94_ENERGY>
50.5903

> <PUBCHEM_FEATURE_SELFOVERLAP>
30.539

> <PUBCHEM_SHAPE_FINGERPRINT>
10 15 18334020467067821913
10319688 45 17984414419899284567
10411042 1 17908139129765025351
105312 117 17274816956787453166
10595046 47 18335697286840954890
11101153 10 18193554695090965437
11578080 2 17345772793515537783
12107183 9 18119518835402073922
12236239 1 18408600379840553894
12390115 104 18342747307646822399
12616971 3 17167869659877124830
12895837 130 18409173220412879801
13073987 5 18335698373625793570
13167372 99 18408884032402529000
14202776 33 18200590440095831350
14341114 328 18333728005395650930
14394314 77 18334861645140744340
14849402 71 17969508289617212380
14856354 85 18198626729345572759
15188451 53 11097858510088853456
15289351 153 18265605676314730536
15338160 23 18410859875908540481
1577012 14 18334010602039444316
15778101 99 18412829066510119700
16110190 28 18334859394139361988
16126227 98 18342745074992108537
17844677 252 18409171017638079838
17980427 23 18114185258565572014
19377110 9 18040441013716937146
19958102 18 11599715151831912361
21033648 29 17774705537848002010
21065198 48 18333724728536414958
21236236 1 18408602590947059455
21302155 148 18411142406967483013
21304303 282 12686740708858046439
21756936 100 18341887515571709974
21796203 349 17541968797957551811
22122407 14 18335149738635073520
23522609 53 17895774953943020044
23569943 247 16662026064634886858
2747138 104 18120938566521324947
3663271 9 18187362143083070882
4073 2 18259707813563150850
4144715 1 18409739469170521690
4258327 124 18409733954680271053
5104073 3 18259976090162896226
5718773 13 11170211872749937377
5969126 39 18129933611746638199
6327066 14 18339074870818814829
636775 72 18123467444204719424
6376802 137 17607541416373976147
6700243 42 17625576687960085366
7808743 9 18340484478573411953
86090 222 14635998817334391656

> <PUBCHEM_SHAPE_MULTIPOLES>
528.26
18.55
3.39
1.1
19.28
0.84
0.09
11.76
1.93
-5.94
0.23
-0.02
-0.1
-2.5

> <PUBCHEM_SHAPE_SELFOVERLAP>
1183.1

> <PUBCHEM_SHAPE_VOLUME>
282.6

> <PUBCHEM_COORDINATE_TYPE>
2
5
10

$$$$
