6420138
  -OEChem-10062122023D

 46 49  0     0  0  0  0  0  0999 V2000
    5.0812    1.2590   -0.6755 S   0  0  0  0  0  0  0  0  0  0  0  0
   -6.7241    1.8465    0.1263 O   0  0  0  0  0  0  0  0  0  0  0  0
   -4.3537    0.3562   -0.1167 N   0  0  0  0  0  0  0  0  0  0  0  0
    0.3730   -2.6965   -0.0524 N   0  0  0  0  0  0  0  0  0  0  0  0
    2.0205   -1.0260   -0.0067 N   0  0  0  0  0  0  0  0  0  0  0  0
    2.6235   -3.3591   -0.0174 N   0  0  0  0  0  0  0  0  0  0  0  0
    3.4965    2.9941    0.4019 N   0  0  0  0  0  0  0  0  0  0  0  0
    5.4664    3.8878   -0.5526 N   0  0  0  0  0  0  0  0  0  0  0  0
   -4.3412    1.6693    0.5425 C   0  0  0  0  0  0  0  0  0  0  0  0
   -5.6575   -0.3155   -0.1459 C   0  0  0  0  0  0  0  0  0  0  0  0
   -5.4768    2.5290   -0.0008 C   0  0  0  0  0  0  0  0  0  0  0  0
   -6.7233    0.6502   -0.6519 C   0  0  0  0  0  0  0  0  0  0  0  0
   -3.1786   -0.4021   -0.1000 C   0  0  0  0  0  0  0  0  0  0  0  0
   -1.9898    0.0884   -0.6764 C   0  0  0  0  0  0  0  0  0  0  0  0
   -3.1480   -1.6803    0.4931 C   0  0  0  0  0  0  0  0  0  0  0  0
   -0.8114   -1.9311   -0.0678 C   0  0  0  0  0  0  0  0  0  0  0  0
   -0.8182   -0.6685   -0.6607 C   0  0  0  0  0  0  0  0  0  0  0  0
   -1.9763   -2.4370    0.5090 C   0  0  0  0  0  0  0  0  0  0  0  0
    1.7364   -2.3439   -0.0242 C   0  0  0  0  0  0  0  0  0  0  0  0
    3.3353   -0.7246    0.0207 C   0  0  0  0  0  0  0  0  0  0  0  0
    3.6302    0.6834    0.0385 C   0  0  0  0  0  0  0  0  0  0  0  0
    2.9202    1.7485    0.5574 C   0  0  0  0  0  0  0  0  0  0  0  0
    4.3390   -1.6716    0.0307 C   0  0  0  0  0  0  0  0  0  0  0  0
    3.9199   -2.9861    0.0103 C   0  0  0  0  0  0  0  0  0  0  0  0
    1.6180    1.6727    1.2529 C   0  0  0  0  0  0  0  0  0  0  0  0
    4.6387    2.8572   -0.2344 C   0  0  0  0  0  0  0  0  0  0  0  0
   -3.3943    2.1986    0.3902 H   0  0  0  0  0  0  0  0  0  0  0  0
   -4.4724    1.5185    1.6212 H   0  0  0  0  0  0  0  0  0  0  0  0
   -5.9167   -0.6426    0.8687 H   0  0  0  0  0  0  0  0  0  0  0  0
   -5.6378   -1.1929   -0.8029 H   0  0  0  0  0  0  0  0  0  0  0  0
   -5.5443    3.4615    0.5685 H   0  0  0  0  0  0  0  0  0  0  0  0
   -5.3106    2.7926   -1.0523 H   0  0  0  0  0  0  0  0  0  0  0  0
   -6.5649    0.9025   -1.7075 H   0  0  0  0  0  0  0  0  0  0  0  0
   -7.7136    0.1918   -0.5660 H   0  0  0  0  0  0  0  0  0  0  0  0
   -1.9775    1.0613   -1.1631 H   0  0  0  0  0  0  0  0  0  0  0  0
   -4.0329   -2.1019    0.9633 H   0  0  0  0  0  0  0  0  0  0  0  0
    0.0505   -0.2574   -1.1641 H   0  0  0  0  0  0  0  0  0  0  0  0
   -1.9828   -3.4181    0.9770 H   0  0  0  0  0  0  0  0  0  0  0  0
    0.2255   -3.6936    0.0724 H   0  0  0  0  0  0  0  0  0  0  0  0
    5.3968   -1.4460    0.0723 H   0  0  0  0  0  0  0  0  0  0  0  0
    4.6361   -3.8007    0.0208 H   0  0  0  0  0  0  0  0  0  0  0  0
    1.4335    2.5871    1.8271 H   0  0  0  0  0  0  0  0  0  0  0  0
    0.8038    1.5673    0.5313 H   0  0  0  0  0  0  0  0  0  0  0  0
    1.5830    0.8364    1.9578 H   0  0  0  0  0  0  0  0  0  0  0  0
    5.2423    4.8474   -0.3107 H   0  0  0  0  0  0  0  0  0  0  0  0
    6.3406    3.7385   -1.0456 H   0  0  0  0  0  0  0  0  0  0  0  0
  1 21  1  0  0  0  0
  1 26  1  0  0  0  0
  2 11  1  0  0  0  0
  2 12  1  0  0  0  0
  3  9  1  0  0  0  0
  3 10  1  0  0  0  0
  3 13  1  0  0  0  0
  4 16  1  0  0  0  0
  4 19  1  0  0  0  0
  4 39  1  0  0  0  0
  5 19  1  0  0  0  0
  5 20  2  0  0  0  0
  6 19  2  0  0  0  0
  6 24  1  0  0  0  0
  7 22  1  0  0  0  0
  7 26  2  0  0  0  0
  8 26  1  0  0  0  0
  8 45  1  0  0  0  0
  8 46  1  0  0  0  0
  9 11  1  0  0  0  0
  9 27  1  0  0  0  0
  9 28  1  0  0  0  0
 10 12  1  0  0  0  0
 10 29  1  0  0  0  0
 10 30  1  0  0  0  0
 11 31  1  0  0  0  0
 11 32  1  0  0  0  0
 12 33  1  0  0  0  0
 12 34  1  0  0  0  0
 13 14  2  0  0  0  0
 13 15  1  0  0  0  0
 14 17  1  0  0  0  0
 14 35  1  0  0  0  0
 15 18  2  0  0  0  0
 15 36  1  0  0  0  0
 16 17  2  0  0  0  0
 16 18  1  0  0  0  0
 17 37  1  0  0  0  0
 18 38  1  0  0  0  0
 20 21  1  0  0  0  0
 20 23  1  0  0  0  0
 21 22  2  0  0  0  0
 22 25  1  0  0  0  0
 23 24  2  0  0  0  0
 23 40  1  0  0  0  0
 24 41  1  0  0  0  0
 25 42  1  0  0  0  0
 25 43  1  0  0  0  0
 25 44  1  0  0  0  0
M  END
> <PUBCHEM_COMPOUND_CID>
6420138

> <PUBCHEM_CONFORMER_RMSD>
0.8

> <PUBCHEM_CONFORMER_DIVERSEORDER>
1
32
65
39
74
11
3
46
48
43
56
55
37
2
67
72
66
53
58
62
4
70
68
79
45
22
16
77
29
6
47
10
40
36
26
15
78
9
84
34
49
82
80
5
31
64
44
85
27
83
59
57
25
61
52
42
17
12
63
33
38
73
14
28
60
21
69
24
19
54
76
18
20
81
50
23
51
7
71
75
35
8
41
30
13

> <PUBCHEM_MMFF94_PARTIAL_CHARGES>
35
1 -0.08
10 0.37
11 0.28
12 0.28
13 0.1
14 -0.15
15 -0.15
16 0.1
17 -0.15
18 -0.15
19 0.72
2 -0.56
20 0.36
21 -0.01
22 0.05
23 -0.15
24 0.16
25 0.18
26 0.46
3 -0.84
35 0.15
36 0.15
37 0.15
38 0.15
39 0.4
4 -0.6
40 0.15
41 0.15
45 0.4
46 0.4
5 -0.62
6 -0.62
7 -0.57
8 -0.88
9 0.37

> <PUBCHEM_EFFECTIVE_ROTOR_COUNT>
5.2

> <PUBCHEM_PHARMACOPHORE_FEATURES>
11
1 2 acceptor
1 3 cation
1 4 donor
1 5 acceptor
1 8 donor
3 7 8 26 cation
4 4 5 6 19 cation
5 1 7 21 22 26 rings
6 13 14 15 16 17 18 rings
6 2 3 9 10 11 12 rings
6 5 6 19 20 23 24 rings

> <PUBCHEM_HEAVY_ATOM_COUNT>
26

> <PUBCHEM_ATOM_DEF_STEREO_COUNT>
0

> <PUBCHEM_ATOM_UDEF_STEREO_COUNT>
0

> <PUBCHEM_BOND_DEF_STEREO_COUNT>
0

> <PUBCHEM_BOND_UDEF_STEREO_COUNT>
0

> <PUBCHEM_ISOTOPIC_ATOM_COUNT>
0

> <PUBCHEM_COMPONENT_COUNT>
1

> <PUBCHEM_CACTVS_TAUTO_COUNT>
9

> <PUBCHEM_CONFORMER_ID>
0061F6AA00000001

> <PUBCHEM_MMFF94_ENERGY>
87.0392

> <PUBCHEM_FEATURE_SELFOVERLAP>
55.822

> <PUBCHEM_SHAPE_FINGERPRINT>
10050765 1 18410012173418143679
10411042 1 17834394523896596966
10483366 6 18339093618740984372
10595046 47 18342170094814003575
10816530 90 18335707135812238630
11273773 38 18263367052331841212
12788726 201 17560810883238888521
12925494 130 18409448124369066225
13533116 47 18342735204814000173
13878862 14 18263624217724253597
13944108 23 18339085878598682132
14251764 38 18270404867594845409
14251764 75 18340497754138346273
14429114 114 18412260623605633665
14429380 56 18337095775827167341
14528608 73 18341610404529704855
14790565 3 18339081472114482885
14848178 96 18410569600000404433
14931854 50 18059867185410184784
15142526 21 18260266356505560795
15183329 4 18342459218695127073
15198563 99 17838077914119961822
15320467 1 18410575127830192501
15322687 12 18341610434246219016
16067689 302 18341333375540653191
17844677 252 18341336587611577443
18608769 82 18194687196969288035
19053607 189 18339349881200325912
21033648 144 18333722529518395943
21133410 127 18040713688681219396
21315763 129 18268708308289091727
21315764 268 18262234392404099517
22122407 14 18269285586232288025
23559900 14 18339921502724209931
23845131 108 18260546770404134386
245318 6 18042421281445849069
335352 9 18411419471645965502
3411729 13 18408882949543236714
34797466 226 18060144202759079159
350125 39 18336547110270177876
397830 11 18187941590433209235
4058900 60 18261119620836596642
4073 2 18187088390178314859
44555599 121 18129102209226062113
5104073 3 18113899376984317379
53794403 172 18409171008515116172
5718773 13 9943542790283841964
57724786 102 18407755941403021628
58902169 19 17915725506281619967
7288768 16 17968935430255912466
7808743 9 18193273229120654216

> <PUBCHEM_SHAPE_MULTIPOLES>
503.16
15.61
4.38
0.8
17.19
0.57
-0.05
12.11
1.76
-5.69
-0.15
-0.06
0.19
-0.22

> <PUBCHEM_SHAPE_SELFOVERLAP>
1078.483

> <PUBCHEM_SHAPE_VOLUME>
280.9

> <PUBCHEM_COORDINATE_TYPE>
2
5
10

$$$$
