18451223
  -OEChem-10052115183D

 62 66  0     0  0  0  0  0  0999 V2000
   -3.7297   -0.7677   -1.0440 S   0  0  0  0  0  0  0  0  0  0  0  0
    4.9149   -0.8940    0.9425 O   0  0  0  0  0  0  0  0  0  0  0  0
   -8.7657   -0.9432    0.4698 N   0  0  0  0  0  0  0  0  0  0  0  0
   -2.9436    3.0471    1.1674 N   0  0  0  0  0  0  0  0  0  0  0  0
   -0.6289    2.7232    0.8150 N   0  0  0  0  0  0  0  0  0  0  0  0
    4.2498    0.2597   -0.9851 N   0  0  0  0  0  0  0  0  0  0  0  0
    6.4988   -0.0293   -0.5449 N   0  0  0  0  0  0  0  0  0  0  0  0
   -8.6627   -3.2498    0.1257 C   0  0  0  0  0  0  0  0  0  0  0  0
  -10.0825   -2.8706    0.5356 C   0  0  0  0  0  0  0  0  0  0  0  0
   -8.0030   -1.9403   -0.2805 C   0  0  0  0  0  0  0  0  0  0  0  0
  -10.1617   -1.3627    0.3484 C   0  0  0  0  0  0  0  0  0  0  0  0
   -8.5471    0.4091   -0.0218 C   0  0  0  0  0  0  0  0  0  0  0  0
   -7.1396    0.7942    0.1158 C   0  0  0  0  0  0  0  0  0  0  0  0
   -2.2415    1.0936   -0.0420 C   0  0  0  0  0  0  0  0  0  0  0  0
   -3.5798    0.7132   -0.1749 C   0  0  0  0  0  0  0  0  0  0  0  0
   -4.6135    1.4915    0.3594 C   0  0  0  0  0  0  0  0  0  0  0  0
   -1.3672    0.1430   -0.6674 C   0  0  0  0  0  0  0  0  0  0  0  0
   -5.9868    1.1133    0.2266 C   0  0  0  0  0  0  0  0  0  0  0  0
    0.0724    0.1738   -0.7494 C   0  0  0  0  0  0  0  0  0  0  0  0
   -1.9572    2.2843    0.6454 C   0  0  0  0  0  0  0  0  0  0  0  0
   -2.0423   -0.9066   -1.2438 C   0  0  0  0  0  0  0  0  0  0  0  0
   -4.2203    2.6439    1.0166 C   0  0  0  0  0  0  0  0  0  0  0  0
    0.6975    0.8040   -1.8254 C   0  0  0  0  0  0  0  0  0  0  0  0
    0.8397   -0.4282    0.2478 C   0  0  0  0  0  0  0  0  0  0  0  0
    2.8571    0.2302   -0.9068 C   0  0  0  0  0  0  0  0  0  0  0  0
    2.0898    0.8324   -1.9042 C   0  0  0  0  0  0  0  0  0  0  0  0
    2.2320   -0.4000    0.1691 C   0  0  0  0  0  0  0  0  0  0  0  0
    5.1973   -0.2865   -0.0853 C   0  0  0  0  0  0  0  0  0  0  0  0
    7.7243   -0.4016    0.0564 C   0  0  0  0  0  0  0  0  0  0  0  0
   10.1401   -0.4247    0.0435 C   0  0  0  0  0  0  0  0  0  0  0  0
    8.9324   -0.0563   -0.5493 C   0  0  0  0  0  0  0  0  0  0  0  0
    7.7238   -1.1152    1.2549 C   0  0  0  0  0  0  0  0  0  0  0  0
   10.1397   -1.1385    1.2420 C   0  0  0  0  0  0  0  0  0  0  0  0
    8.9316   -1.4837    1.8477 C   0  0  0  0  0  0  0  0  0  0  0  0
   11.4320   -0.0575   -0.6049 C   0  0  0  0  0  0  0  0  0  0  0  0
   -8.6574   -3.9740   -0.6953 H   0  0  0  0  0  0  0  0  0  0  0  0
   -8.1400   -3.7023    0.9767 H   0  0  0  0  0  0  0  0  0  0  0  0
  -10.2507   -3.1426    1.5842 H   0  0  0  0  0  0  0  0  0  0  0  0
  -10.8317   -3.3901   -0.0704 H   0  0  0  0  0  0  0  0  0  0  0  0
   -8.1007   -1.7995   -1.3650 H   0  0  0  0  0  0  0  0  0  0  0  0
   -6.9394   -1.9496   -0.0223 H   0  0  0  0  0  0  0  0  0  0  0  0
  -10.8007   -0.8958    1.1045 H   0  0  0  0  0  0  0  0  0  0  0  0
  -10.5707   -1.1346   -0.6444 H   0  0  0  0  0  0  0  0  0  0  0  0
   -9.1593    1.1099    0.5587 H   0  0  0  0  0  0  0  0  0  0  0  0
   -8.8547    0.5095   -1.0705 H   0  0  0  0  0  0  0  0  0  0  0  0
   -1.6336   -1.7553   -1.7762 H   0  0  0  0  0  0  0  0  0  0  0  0
   -4.9535    3.3106    1.4630 H   0  0  0  0  0  0  0  0  0  0  0  0
    0.1140    1.2791   -2.6106 H   0  0  0  0  0  0  0  0  0  0  0  0
    0.3668   -0.9224    1.0935 H   0  0  0  0  0  0  0  0  0  0  0  0
    2.5636    1.3276   -2.7480 H   0  0  0  0  0  0  0  0  0  0  0  0
    2.7538   -0.8874    0.9802 H   0  0  0  0  0  0  0  0  0  0  0  0
   -0.4787    3.5877    1.3192 H   0  0  0  0  0  0  0  0  0  0  0  0
    0.1686    2.2219    0.4634 H   0  0  0  0  0  0  0  0  0  0  0  0
    4.6317    0.7376   -1.7975 H   0  0  0  0  0  0  0  0  0  0  0  0
    6.5811    0.4880   -1.4165 H   0  0  0  0  0  0  0  0  0  0  0  0
    8.9340    0.4982   -1.4851 H   0  0  0  0  0  0  0  0  0  0  0  0
    6.8332   -1.4200    1.7852 H   0  0  0  0  0  0  0  0  0  0  0  0
   11.0738   -1.4333    1.7127 H   0  0  0  0  0  0  0  0  0  0  0  0
    8.9325   -2.0399    2.7807 H   0  0  0  0  0  0  0  0  0  0  0  0
   12.2296    0.0568    0.1370 H   0  0  0  0  0  0  0  0  0  0  0  0
   11.3492    0.8974   -1.1352 H   0  0  0  0  0  0  0  0  0  0  0  0
   11.7271   -0.8322   -1.3194 H   0  0  0  0  0  0  0  0  0  0  0  0
  1 15  1  0  0  0  0
  1 21  1  0  0  0  0
  2 28  2  0  0  0  0
  3 10  1  0  0  0  0
  3 11  1  0  0  0  0
  3 12  1  0  0  0  0
  4 20  2  0  0  0  0
  4 22  1  0  0  0  0
  5 20  1  0  0  0  0
  5 52  1  0  0  0  0
  5 53  1  0  0  0  0
  6 25  1  0  0  0  0
  6 28  1  0  0  0  0
  6 54  1  0  0  0  0
  7 28  1  0  0  0  0
  7 29  1  0  0  0  0
  7 55  1  0  0  0  0
  8  9  1  0  0  0  0
  8 10  1  0  0  0  0
  8 36  1  0  0  0  0
  8 37  1  0  0  0  0
  9 11  1  0  0  0  0
  9 38  1  0  0  0  0
  9 39  1  0  0  0  0
 10 40  1  0  0  0  0
 10 41  1  0  0  0  0
 11 42  1  0  0  0  0
 11 43  1  0  0  0  0
 12 13  1  0  0  0  0
 12 44  1  0  0  0  0
 12 45  1  0  0  0  0
 13 18  3  0  0  0  0
 14 15  2  0  0  0  0
 14 17  1  0  0  0  0
 14 20  1  0  0  0  0
 15 16  1  0  0  0  0
 16 18  1  0  0  0  0
 16 22  2  0  0  0  0
 17 19  1  0  0  0  0
 17 21  2  0  0  0  0
 19 23  2  0  0  0  0
 19 24  1  0  0  0  0
 21 46  1  0  0  0  0
 22 47  1  0  0  0  0
 23 26  1  0  0  0  0
 23 48  1  0  0  0  0
 24 27  2  0  0  0  0
 24 49  1  0  0  0  0
 25 26  2  0  0  0  0
 25 27  1  0  0  0  0
 26 50  1  0  0  0  0
 27 51  1  0  0  0  0
 29 31  1  0  0  0  0
 29 32  2  0  0  0  0
 30 31  2  0  0  0  0
 30 33  1  0  0  0  0
 30 35  1  0  0  0  0
 31 56  1  0  0  0  0
 32 34  1  0  0  0  0
 32 57  1  0  0  0  0
 33 34  2  0  0  0  0
 33 58  1  0  0  0  0
 34 59  1  0  0  0  0
 35 60  1  0  0  0  0
 35 61  1  0  0  0  0
 35 62  1  0  0  0  0
M  END
> <PUBCHEM_COMPOUND_CID>
18451223

> <PUBCHEM_CONFORMER_RMSD>
1

> <PUBCHEM_CONFORMER_DIVERSEORDER>
1
6
3
11
16
26
5
20
14
9
19
4
13
12
10
21
23
22
7
15
8
25
18
2
17
24

> <PUBCHEM_MMFF94_PARTIAL_CHARGES>
46
1 -0.08
10 0.27
11 0.27
12 0.47
13 -0.2
15 0.04
16 0.07
17 -0.05
18 -0.07
19 0.05
2 -0.57
20 0.41
21 -0.11
22 0.16
23 -0.15
24 -0.15
25 0.12
26 -0.15
27 -0.15
28 0.69
29 0.12
3 -0.81
30 -0.14
31 -0.15
32 -0.15
33 -0.15
34 -0.15
35 0.14
4 -0.62
46 0.15
47 0.15
48 0.15
49 0.15
5 -0.9
50 0.15
51 0.15
52 0.4
53 0.4
54 0.37
55 0.37
56 0.15
57 0.15
58 0.15
59 0.15
6 -0.55
7 -0.55

> <PUBCHEM_EFFECTIVE_ROTOR_COUNT>
7

> <PUBCHEM_PHARMACOPHORE_FEATURES>
11
1 2 acceptor
1 3 cation
1 5 donor
1 6 donor
1 7 donor
3 4 5 20 cation
5 1 14 15 17 21 rings
5 3 8 9 10 11 rings
6 19 23 24 25 26 27 rings
6 29 30 31 32 33 34 rings
6 4 14 15 16 20 22 rings

> <PUBCHEM_HEAVY_ATOM_COUNT>
35

> <PUBCHEM_ATOM_DEF_STEREO_COUNT>
0

> <PUBCHEM_ATOM_UDEF_STEREO_COUNT>
0

> <PUBCHEM_BOND_DEF_STEREO_COUNT>
0

> <PUBCHEM_BOND_UDEF_STEREO_COUNT>
0

> <PUBCHEM_ISOTOPIC_ATOM_COUNT>
0

> <PUBCHEM_COMPONENT_COUNT>
1

> <PUBCHEM_CACTVS_TAUTO_COUNT>
6

> <PUBCHEM_CONFORMER_ID>
01198B1700000001

> <PUBCHEM_MMFF94_ENERGY>
98.762

> <PUBCHEM_FEATURE_SELFOVERLAP>
55.936

> <PUBCHEM_SHAPE_FINGERPRINT>
10 15 17418088785707493276
10076449 9 17418373580087483329
10100884 174 18335138752209399147
10162869 55 17675927603837001542
10299344 5 18334856092427186916
10533779 47 16702026336556015542
11135609 99 18336548326231518199
11181472 205 9871478611986514134
11410812 94 17385998431097877405
11456790 92 16988844994825786745
12013929 94 18409732871646717251
12089408 11 18186805768313213868
12498461 61 18334853926530177083
12539745 222 18260544512005217181
13383668 254 12463283769552948967
13740195 50 18201998849918569075
14202775 3 18341899550598334638
14279260 333 18408882950287925271
14400156 96 17822578338979149284
14918687 75 18187645825667858862
15247644 1 16950284005243164794
15274700 256 18341331171451972218
15392192 104 18412262814650617950
16728433 281 7925095662762940983
17686467 74 18272082803653306881
20156587 128 9079126561890455720
20501277 279 16487538040108735327
21057603 130 17821730550804027015
21102433 48 18186516609535243451
21360443 89 18341891927088814967
21792961 116 14851601059839050772
21895431 317 17749380430870698202
22899556 10 17480039501929776329
232437 2 18113899364368258270
2835820 33 18344146998765161962
3092352 35 18408041794180891530
3986486 107 14273448185585783367
4017518 198 13767929018544079257
4353968 344 17603579708901986237
4625314 4 12107802812759869574
58083652 198 16009043778415346212
59521270 166 8862946065408656289
59521660 218 17895203254461332300
59584819 82 17530969098495532859
59682541 35 17561081401663907329
6691757 9 18413395323609880451
9663363 56 17989204833927682341
9953998 17 16056874754383408191
9962374 69 17821728355959486396

> <PUBCHEM_SHAPE_MULTIPOLES>
693.36
41.45
2.53
1.33
41.18
0.08
-0.13
-29.76
10.02
-7.87
1.05
1.68
0.12
-2.18

> <PUBCHEM_SHAPE_SELFOVERLAP>
1504.629

> <PUBCHEM_SHAPE_VOLUME>
380.6

> <PUBCHEM_COORDINATE_TYPE>
2
5
10

$$$$
