49830849
  -OEChem-10062121533D

 61 65  0     0  0  0  0  0  0999 V2000
   -3.8962    1.1224    0.7617 O   0  0  0  0  0  0  0  0  0  0  0  0
    1.0891   -2.6665   -1.7745 O   0  0  0  0  0  0  0  0  0  0  0  0
   -0.7979   -1.4197   -2.0008 O   0  0  0  0  0  0  0  0  0  0  0  0
    2.4610   -0.6029   -0.6295 N   0  0  0  0  0  0  0  0  0  0  0  0
    7.1318   -1.1178    0.1060 N   0  0  0  0  0  0  0  0  0  0  0  0
    6.4557   -1.9926    0.8703 N   0  0  0  0  0  0  0  0  0  0  0  0
    0.7742    0.8369   -0.7244 C   0  0  0  0  0  0  0  0  0  0  0  0
    1.8879    1.4948   -0.1311 C   0  0  0  0  0  0  0  0  0  0  0  0
    2.9326    0.5694   -0.0833 C   0  0  0  0  0  0  0  0  0  0  0  0
   -0.5802    1.4454   -0.9826 C   0  0  0  0  0  0  0  0  0  0  0  0
    4.1916    0.8785    0.4442 C   0  0  0  0  0  0  0  0  0  0  0  0
    1.1576   -0.4510   -1.0198 C   0  0  0  0  0  0  0  0  0  0  0  0
    5.2295   -0.1075    0.4690 C   0  0  0  0  0  0  0  0  0  0  0  0
   -1.6102    0.9901    0.0497 C   0  0  0  0  0  0  0  0  0  0  0  0
    2.1080    2.7928    0.3713 C   0  0  0  0  0  0  0  0  0  0  0  0
    4.3864    2.1718    0.9368 C   0  0  0  0  0  0  0  0  0  0  0  0
    6.4416    0.0275   -0.1630 C   0  0  0  0  0  0  0  0  0  0  0  0
    5.2944   -1.3698    1.0889 C   0  0  0  0  0  0  0  0  0  0  0  0
    3.3622    3.1160    0.9019 C   0  0  0  0  0  0  0  0  0  0  0  0
   -2.9875    1.5703   -0.2401 C   0  0  0  0  0  0  0  0  0  0  0  0
    0.3912   -1.4961   -1.6239 C   0  0  0  0  0  0  0  0  0  0  0  0
    7.0046    1.1169   -0.9857 C   0  0  0  0  0  0  0  0  0  0  0  0
    4.2632   -2.0306    1.9090 C   0  0  0  0  0  0  0  0  0  0  0  0
    8.4642   -1.4540   -0.3394 C   0  0  0  0  0  0  0  0  0  0  0  0
   -5.1995    0.9621    0.3863 C   0  0  0  0  0  0  0  0  0  0  0  0
   -5.8393   -0.2846    0.4795 C   0  0  0  0  0  0  0  0  0  0  0  0
   -7.1916   -0.4003    0.0783 C   0  0  0  0  0  0  0  0  0  0  0  0
   -5.8832    2.0788   -0.0957 C   0  0  0  0  0  0  0  0  0  0  0  0
   -5.1668   -1.4190    0.9623 C   0  0  0  0  0  0  0  0  0  0  0  0
   -7.8642    0.7342   -0.4045 C   0  0  0  0  0  0  0  0  0  0  0  0
   -7.2129    1.9650   -0.4903 C   0  0  0  0  0  0  0  0  0  0  0  0
   -7.8314   -1.6470    0.1715 C   0  0  0  0  0  0  0  0  0  0  0  0
   -5.8181   -2.6498    1.0482 C   0  0  0  0  0  0  0  0  0  0  0  0
   -7.1478   -2.7636    0.6535 C   0  0  0  0  0  0  0  0  0  0  0  0
   -0.9113    1.1827   -1.9946 H   0  0  0  0  0  0  0  0  0  0  0  0
   -0.5046    2.5394   -0.9663 H   0  0  0  0  0  0  0  0  0  0  0  0
    2.9999   -1.4510   -0.7379 H   0  0  0  0  0  0  0  0  0  0  0  0
   -1.2943    1.2925    1.0570 H   0  0  0  0  0  0  0  0  0  0  0  0
   -1.6827   -0.1033    0.0893 H   0  0  0  0  0  0  0  0  0  0  0  0
    1.3213    3.5415    0.3544 H   0  0  0  0  0  0  0  0  0  0  0  0
    5.3451    2.4612    1.3630 H   0  0  0  0  0  0  0  0  0  0  0  0
    3.5370    4.1151    1.2923 H   0  0  0  0  0  0  0  0  0  0  0  0
   -2.9486    2.6653   -0.2164 H   0  0  0  0  0  0  0  0  0  0  0  0
   -3.3163    1.2510   -1.2376 H   0  0  0  0  0  0  0  0  0  0  0  0
    6.2212    1.7627   -1.3943 H   0  0  0  0  0  0  0  0  0  0  0  0
    7.5673    0.7264   -1.8399 H   0  0  0  0  0  0  0  0  0  0  0  0
    7.6774    1.7388   -0.3864 H   0  0  0  0  0  0  0  0  0  0  0  0
    3.6494   -2.6947    1.2922 H   0  0  0  0  0  0  0  0  0  0  0  0
    4.7175   -2.6331    2.7032 H   0  0  0  0  0  0  0  0  0  0  0  0
    3.6034   -1.3030    2.3920 H   0  0  0  0  0  0  0  0  0  0  0  0
    8.4216   -1.6747   -1.4087 H   0  0  0  0  0  0  0  0  0  0  0  0
    8.8213   -2.3298    0.2091 H   0  0  0  0  0  0  0  0  0  0  0  0
    9.1264   -0.6072   -0.1429 H   0  0  0  0  0  0  0  0  0  0  0  0
    0.5394   -3.3644   -2.1906 H   0  0  0  0  0  0  0  0  0  0  0  0
   -5.3953    3.0476   -0.1601 H   0  0  0  0  0  0  0  0  0  0  0  0
   -4.1274   -1.3647    1.2785 H   0  0  0  0  0  0  0  0  0  0  0  0
   -8.9040    0.6687   -0.7181 H   0  0  0  0  0  0  0  0  0  0  0  0
   -7.7453    2.8351   -0.8633 H   0  0  0  0  0  0  0  0  0  0  0  0
   -8.8704   -1.7592   -0.1313 H   0  0  0  0  0  0  0  0  0  0  0  0
   -5.2865   -3.5196    1.4232 H   0  0  0  0  0  0  0  0  0  0  0  0
   -7.6542   -3.7222    0.7206 H   0  0  0  0  0  0  0  0  0  0  0  0
  1 20  1  0  0  0  0
  1 25  1  0  0  0  0
  2 21  1  0  0  0  0
  2 54  1  0  0  0  0
  3 21  2  0  0  0  0
  4  9  1  0  0  0  0
  4 12  1  0  0  0  0
  4 37  1  0  0  0  0
  5  6  1  0  0  0  0
  5 17  1  0  0  0  0
  5 24  1  0  0  0  0
  6 18  2  0  0  0  0
  7  8  1  0  0  0  0
  7 10  1  0  0  0  0
  7 12  2  0  0  0  0
  8  9  2  0  0  0  0
  8 15  1  0  0  0  0
  9 11  1  0  0  0  0
 10 14  1  0  0  0  0
 10 35  1  0  0  0  0
 10 36  1  0  0  0  0
 11 13  1  0  0  0  0
 11 16  2  0  0  0  0
 12 21  1  0  0  0  0
 13 17  2  0  0  0  0
 13 18  1  0  0  0  0
 14 20  1  0  0  0  0
 14 38  1  0  0  0  0
 14 39  1  0  0  0  0
 15 19  2  0  0  0  0
 15 40  1  0  0  0  0
 16 19  1  0  0  0  0
 16 41  1  0  0  0  0
 17 22  1  0  0  0  0
 18 23  1  0  0  0  0
 19 42  1  0  0  0  0
 20 43  1  0  0  0  0
 20 44  1  0  0  0  0
 22 45  1  0  0  0  0
 22 46  1  0  0  0  0
 22 47  1  0  0  0  0
 23 48  1  0  0  0  0
 23 49  1  0  0  0  0
 23 50  1  0  0  0  0
 24 51  1  0  0  0  0
 24 52  1  0  0  0  0
 24 53  1  0  0  0  0
 25 26  1  0  0  0  0
 25 28  2  0  0  0  0
 26 27  1  0  0  0  0
 26 29  2  0  0  0  0
 27 30  1  0  0  0  0
 27 32  2  0  0  0  0
 28 31  1  0  0  0  0
 28 55  1  0  0  0  0
 29 33  1  0  0  0  0
 29 56  1  0  0  0  0
 30 31  2  0  0  0  0
 30 57  1  0  0  0  0
 31 58  1  0  0  0  0
 32 34  1  0  0  0  0
 32 59  1  0  0  0  0
 33 34  2  0  0  0  0
 33 60  1  0  0  0  0
 34 61  1  0  0  0  0
M  END
> <PUBCHEM_COMPOUND_CID>
49830849

> <PUBCHEM_CONFORMER_RMSD>
1.2

> <PUBCHEM_CONFORMER_DIVERSEORDER>
2
39
95
33
55
148
84
50
145
6
126
21
120
140
121
64
69
132
23
90
14
27
66
36
107
25
106
87
103
93
30
113
82
32
45
19
56
1
130
102
54
97
76
115
26
40
81
88
152
127
144
28
117
49
48
114
24
68
72
53
92
100
47
22
134
83
11
142
63
5
46
65
38
73
12
42
139
91
37
41
17
60
59
89
104
143
78
80
94
138
4
52
99
71
13
118
58
110
79
77
105
43
122
57
61
98
62
35
86
15
129
9
109
135
51
74
124
3
133
29
10
34
119
96
150
125
147
44
146
8
20
151
136
141
75
149
16
70
153
67
85
123
111
131
112
101
116
18
31
7
137
108
128

> <PUBCHEM_MMFF94_PARTIAL_CHARGES>
42
1 -0.36
10 0.18
11 0.05
12 -0.24
13 -0.05
15 -0.15
16 -0.15
17 -0.33
18 0.11
19 -0.15
2 -0.65
20 0.28
21 0.81
22 0.18
23 0.18
24 0.26
25 0.08
28 -0.15
29 -0.15
3 -0.57
30 -0.15
31 -0.15
32 -0.15
33 -0.15
34 -0.15
37 0.27
4 0.03
40 0.15
41 0.15
42 0.15
5 0.31
54 0.5
55 0.15
56 0.15
57 0.15
58 0.15
59 0.15
6 -0.71
60 0.15
61 0.15
7 -0.18
9 -0.15

> <PUBCHEM_EFFECTIVE_ROTOR_COUNT>
7

> <PUBCHEM_PHARMACOPHORE_FEATURES>
12
1 1 acceptor
1 2 acceptor
1 3 acceptor
1 4 cation
1 4 donor
1 6 acceptor
3 2 3 21 anion
5 4 7 8 9 12 rings
5 5 6 13 17 18 rings
6 25 26 27 28 30 31 rings
6 26 27 29 32 33 34 rings
6 8 9 11 15 16 19 rings

> <PUBCHEM_HEAVY_ATOM_COUNT>
34

> <PUBCHEM_ATOM_DEF_STEREO_COUNT>
0

> <PUBCHEM_ATOM_UDEF_STEREO_COUNT>
0

> <PUBCHEM_BOND_DEF_STEREO_COUNT>
0

> <PUBCHEM_BOND_UDEF_STEREO_COUNT>
0

> <PUBCHEM_ISOTOPIC_ATOM_COUNT>
0

> <PUBCHEM_COMPONENT_COUNT>
1

> <PUBCHEM_CACTVS_TAUTO_COUNT>
6

> <PUBCHEM_CONFORMER_ID>
02F85BC100000002

> <PUBCHEM_MMFF94_ENERGY>
83.4135

> <PUBCHEM_FEATURE_SELFOVERLAP>
61.073

> <PUBCHEM_SHAPE_FINGERPRINT>
10 15 18201438103610359589
10675989 125 9942991956227557724
10835480 77 18272089341469198485
11135609 99 18410576214403281175
11646440 116 16702303451133020720
11719270 70 18202282485364140815
11963148 33 18334571313640509410
12013929 94 18335989760959599514
12422481 6 18343577469133009103
12522641 126 17895205462585900788
13560911 23 18201157655358407825
13782708 43 18333447633983163217
13811026 1 18341615901628966103
14675019 173 18186240636675103964
15183329 4 18113617880795981723
15198563 99 15430312469479405726
15352257 5 18113334202327091275
19841028 212 18116428143035167594
20105231 36 18342179909442457590
21033648 29 16128070331806715214
21424621 283 12535632673867920165
21623969 137 18059580217575958437
21781051 124 18272099288227951486
21987483 16 17911515712735553251
22223350 30 17201338905179342586
23522609 53 18044688362927857052
23559900 14 18338791351939142977
23572383 38 18410581699999469735
3178227 256 18202566185281674980
4073 2 17968662734519383121
4093350 32 15195294079777344926
4173938 188 16629949032976229311
563151 248 16558744616041105084
6691757 9 16128647565876761021

> <PUBCHEM_SHAPE_MULTIPOLES>
667.15
26.37
3.21
1.31
15.57
0.16
-0.23
9
3.65
0.94
0.62
-0.84
0.63
0.99

> <PUBCHEM_SHAPE_SELFOVERLAP>
1481.169

> <PUBCHEM_SHAPE_VOLUME>
361.3

> <PUBCHEM_COORDINATE_TYPE>
2
5
10

$$$$
