25211064
  -OEChem-10062122023D

 71 75  0     0  0  0  0  0  0999 V2000
   -4.9535    0.9607   -2.4853 Cl  0  0  0  0  0  0  0  0  0  0  0  0
   -6.6188    2.6420   -0.1869 S   0  0  0  0  0  0  0  0  0  0  0  0
    7.2499    0.2590    0.1886 N   0  0  0  0  0  0  0  0  0  0  0  0
    9.7240    1.7447    0.3609 N   0  0  0  0  0  0  0  0  0  0  0  0
   -3.2273   -2.0818    1.2183 N   0  0  0  0  0  0  0  0  0  0  0  0
   -0.8774   -4.7174   -1.0586 N   0  0  0  0  0  0  0  0  0  0  0  0
   -5.7719    5.2817   -0.2210 N   0  0  0  0  0  0  0  0  0  0  0  0
   -4.1653    3.8309    0.2747 N   0  0  0  0  0  0  0  0  0  0  0  0
   -5.4865   -4.7316    0.2946 N   0  0  0  0  0  0  0  0  0  0  0  0
    7.4354    1.5177   -0.5438 C   0  0  0  0  0  0  0  0  0  0  0  0
    8.0569    0.2563    1.4149 C   0  0  0  0  0  0  0  0  0  0  0  0
    8.9160    1.7492   -0.8648 C   0  0  0  0  0  0  0  0  0  0  0  0
    9.5375    0.4864    1.0936 C   0  0  0  0  0  0  0  0  0  0  0  0
    5.8379    0.0404    0.4958 C   0  0  0  0  0  0  0  0  0  0  0  0
   11.1362    1.9616    0.0525 C   0  0  0  0  0  0  0  0  0  0  0  0
    5.1034   -0.4853   -0.7368 C   0  0  0  0  0  0  0  0  0  0  0  0
   11.3478    3.2963   -0.6418 C   0  0  0  0  0  0  0  0  0  0  0  0
    3.6462   -0.7083   -0.4427 C   0  0  0  0  0  0  0  0  0  0  0  0
    3.0494   -1.9071   -0.5341 C   0  0  0  0  0  0  0  0  0  0  0  0
    1.6247   -2.1681   -0.2690 C   0  0  0  0  0  0  0  0  0  0  0  0
    1.0191   -3.3186   -0.7803 C   0  0  0  0  0  0  0  0  0  0  0  0
    0.8831   -1.2708    0.4892 C   0  0  0  0  0  0  0  0  0  0  0  0
   -1.0720   -2.6836    0.2195 C   0  0  0  0  0  0  0  0  0  0  0  0
   -0.3251   -3.5992   -0.5510 C   0  0  0  0  0  0  0  0  0  0  0  0
   -0.4631   -1.5264    0.7340 C   0  0  0  0  0  0  0  0  0  0  0  0
   -2.4252   -2.9656    0.4505 C   0  0  0  0  0  0  0  0  0  0  0  0
   -2.9972   -4.1169   -0.0712 C   0  0  0  0  0  0  0  0  0  0  0  0
   -2.1866   -4.9527   -0.8125 C   0  0  0  0  0  0  0  0  0  0  0  0
   -4.0171   -0.9769    0.8684 C   0  0  0  0  0  0  0  0  0  0  0  0
   -4.1057   -0.5763   -0.4649 C   0  0  0  0  0  0  0  0  0  0  0  0
   -4.7142   -0.2783    1.8542 C   0  0  0  0  0  0  0  0  0  0  0  0
   -5.5884    1.2212    0.1735 C   0  0  0  0  0  0  0  0  0  0  0  0
   -4.8915    0.5225   -0.8123 C   0  0  0  0  0  0  0  0  0  0  0  0
   -5.4996    0.8208    1.5068 C   0  0  0  0  0  0  0  0  0  0  0  0
   -4.3712   -4.4562    0.1307 C   0  0  0  0  0  0  0  0  0  0  0  0
   -5.4364    3.9702   -0.0299 C   0  0  0  0  0  0  0  0  0  0  0  0
   -4.6427    6.0261   -0.0257 C   0  0  0  0  0  0  0  0  0  0  0  0
   -7.0664    5.8247   -0.5670 C   0  0  0  0  0  0  0  0  0  0  0  0
   -3.6647    5.1089    0.2791 C   0  0  0  0  0  0  0  0  0  0  0  0
    6.8938    1.5008   -1.4954 H   0  0  0  0  0  0  0  0  0  0  0  0
    7.0496    2.3686    0.0346 H   0  0  0  0  0  0  0  0  0  0  0  0
    7.7053    1.0255    2.1159 H   0  0  0  0  0  0  0  0  0  0  0  0
    7.9653   -0.7131    1.9198 H   0  0  0  0  0  0  0  0  0  0  0  0
    9.2663    0.9841   -1.5709 H   0  0  0  0  0  0  0  0  0  0  0  0
    8.9691    2.7178   -1.3725 H   0  0  0  0  0  0  0  0  0  0  0  0
   10.0932    0.5212    2.0386 H   0  0  0  0  0  0  0  0  0  0  0  0
    9.9262   -0.3641    0.5171 H   0  0  0  0  0  0  0  0  0  0  0  0
    5.7423   -0.7223    1.2812 H   0  0  0  0  0  0  0  0  0  0  0  0
    5.3631    0.9492    0.8892 H   0  0  0  0  0  0  0  0  0  0  0  0
   11.7092    1.9758    0.9879 H   0  0  0  0  0  0  0  0  0  0  0  0
   11.5469    1.1546   -0.5672 H   0  0  0  0  0  0  0  0  0  0  0  0
    5.1578    0.2266   -1.5675 H   0  0  0  0  0  0  0  0  0  0  0  0
    5.5760   -1.4130   -1.0841 H   0  0  0  0  0  0  0  0  0  0  0  0
   11.0187    3.2821   -1.6853 H   0  0  0  0  0  0  0  0  0  0  0  0
   10.8370    4.1117   -0.1183 H   0  0  0  0  0  0  0  0  0  0  0  0
   12.4171    3.5360   -0.6543 H   0  0  0  0  0  0  0  0  0  0  0  0
    3.0875    0.1846   -0.1779 H   0  0  0  0  0  0  0  0  0  0  0  0
    3.6386   -2.7706   -0.8345 H   0  0  0  0  0  0  0  0  0  0  0  0
    1.6066   -4.0177   -1.3752 H   0  0  0  0  0  0  0  0  0  0  0  0
    1.3128   -0.3745    0.9259 H   0  0  0  0  0  0  0  0  0  0  0  0
   -1.0125   -0.8086    1.3378 H   0  0  0  0  0  0  0  0  0  0  0  0
   -3.2120   -2.3002    2.2103 H   0  0  0  0  0  0  0  0  0  0  0  0
   -2.5651   -5.8713   -1.2519 H   0  0  0  0  0  0  0  0  0  0  0  0
   -3.5655   -1.1144   -1.2406 H   0  0  0  0  0  0  0  0  0  0  0  0
   -4.6539   -0.5795    2.8969 H   0  0  0  0  0  0  0  0  0  0  0  0
   -6.0335    1.3497    2.2928 H   0  0  0  0  0  0  0  0  0  0  0  0
   -4.6274    7.1034   -0.1158 H   0  0  0  0  0  0  0  0  0  0  0  0
   -7.3733    5.4070   -1.5292 H   0  0  0  0  0  0  0  0  0  0  0  0
   -7.7767    5.5598    0.2201 H   0  0  0  0  0  0  0  0  0  0  0  0
   -6.9961    6.9128   -0.6459 H   0  0  0  0  0  0  0  0  0  0  0  0
   -2.6257    5.3035    0.5013 H   0  0  0  0  0  0  0  0  0  0  0  0
  1 33  1  0  0  0  0
  2 32  1  0  0  0  0
  2 36  1  0  0  0  0
  3 10  1  0  0  0  0
  3 11  1  0  0  0  0
  3 14  1  0  0  0  0
  4 12  1  0  0  0  0
  4 13  1  0  0  0  0
  4 15  1  0  0  0  0
  5 26  1  0  0  0  0
  5 29  1  0  0  0  0
  5 62  1  0  0  0  0
  6 24  2  0  0  0  0
  6 28  1  0  0  0  0
  7 36  1  0  0  0  0
  7 37  1  0  0  0  0
  7 38  1  0  0  0  0
  8 36  2  0  0  0  0
  8 39  1  0  0  0  0
  9 35  3  0  0  0  0
 10 12  1  0  0  0  0
 10 40  1  0  0  0  0
 10 41  1  0  0  0  0
 11 13  1  0  0  0  0
 11 42  1  0  0  0  0
 11 43  1  0  0  0  0
 12 44  1  0  0  0  0
 12 45  1  0  0  0  0
 13 46  1  0  0  0  0
 13 47  1  0  0  0  0
 14 16  1  0  0  0  0
 14 48  1  0  0  0  0
 14 49  1  0  0  0  0
 15 17  1  0  0  0  0
 15 50  1  0  0  0  0
 15 51  1  0  0  0  0
 16 18  1  0  0  0  0
 16 52  1  0  0  0  0
 16 53  1  0  0  0  0
 17 54  1  0  0  0  0
 17 55  1  0  0  0  0
 17 56  1  0  0  0  0
 18 19  2  0  0  0  0
 18 57  1  0  0  0  0
 19 20  1  0  0  0  0
 19 58  1  0  0  0  0
 20 21  2  0  0  0  0
 20 22  1  0  0  0  0
 21 24  1  0  0  0  0
 21 59  1  0  0  0  0
 22 25  2  0  0  0  0
 22 60  1  0  0  0  0
 23 24  1  0  0  0  0
 23 25  1  0  0  0  0
 23 26  2  0  0  0  0
 25 61  1  0  0  0  0
 26 27  1  0  0  0  0
 27 28  2  0  0  0  0
 27 35  1  0  0  0  0
 28 63  1  0  0  0  0
 29 30  2  0  0  0  0
 29 31  1  0  0  0  0
 30 33  1  0  0  0  0
 30 64  1  0  0  0  0
 31 34  2  0  0  0  0
 31 65  1  0  0  0  0
 32 33  2  0  0  0  0
 32 34  1  0  0  0  0
 34 66  1  0  0  0  0
 37 39  2  0  0  0  0
 37 67  1  0  0  0  0
 38 68  1  0  0  0  0
 38 69  1  0  0  0  0
 38 70  1  0  0  0  0
 39 71  1  0  0  0  0
M  END
> <PUBCHEM_COMPOUND_CID>
25211064

> <PUBCHEM_CONFORMER_RMSD>
1.2

> <PUBCHEM_CONFORMER_DIVERSEORDER>
1
92
115
53
9
102
67
95
27
103
113
60
93
80
21
129
33
69
37
96
40
109
31
83
79
71
85
51
42
84
36
127
26
119
105
124
120
57
99
56
125
15
88
39
106
121
62
35
104
11
75
123
52
6
12
28
49
98
74
59
126
54
76
91
10
82
130
116
108
101
117
72
18
78
112
38
118
46
32
77
4
50
128
48
34
94
114
107
2
70
86
131
68
97
8
111
58
7
66
5
41
122
61
90
3
100
45
44
73
132
47
25
87
19
30
13
55
29
20
65
63
81
16
43
24
64
23
14
110
17
22
89

> <PUBCHEM_MMFF94_PARTIAL_CHARGES>
49
1 -0.18
10 0.27
11 0.27
12 0.27
13 0.27
14 0.27
15 0.27
16 0.14
18 -0.29
19 -0.18
2 -0.16
20 0.03
21 -0.15
22 -0.15
24 0.31
25 -0.15
26 0.1
27 0.07
28 0.16
29 0.1
3 -0.81
30 -0.15
31 -0.15
32 0.1
33 0.18
34 -0.15
35 0.48
36 0.24
37 -0.3
38 0.26
39 0.08
4 -0.81
5 -0.6
57 0.15
58 0.15
59 0.15
6 -0.62
60 0.15
61 0.15
62 0.4
63 0.15
64 0.15
65 0.15
66 0.15
67 0.15
7 0.05
71 0.15
8 -0.57
9 -0.56

> <PUBCHEM_EFFECTIVE_ROTOR_COUNT>
10.2

> <PUBCHEM_PHARMACOPHORE_FEATURES>
12
1 3 cation
1 4 cation
1 5 cation
1 5 donor
1 6 acceptor
1 9 acceptor
3 7 8 36 cation
5 7 8 36 37 39 rings
6 20 21 22 23 24 25 rings
6 29 30 31 32 33 34 rings
6 3 4 10 11 12 13 rings
6 6 23 24 26 27 28 rings

> <PUBCHEM_HEAVY_ATOM_COUNT>
39

> <PUBCHEM_ATOM_DEF_STEREO_COUNT>
0

> <PUBCHEM_ATOM_UDEF_STEREO_COUNT>
0

> <PUBCHEM_BOND_DEF_STEREO_COUNT>
1

> <PUBCHEM_BOND_UDEF_STEREO_COUNT>
0

> <PUBCHEM_ISOTOPIC_ATOM_COUNT>
0

> <PUBCHEM_COMPONENT_COUNT>
1

> <PUBCHEM_CACTVS_TAUTO_COUNT>
3

> <PUBCHEM_CONFORMER_ID>
0180B0B800000001

> <PUBCHEM_MMFF94_ENERGY>
107.7759

> <PUBCHEM_FEATURE_SELFOVERLAP>
60.932

> <PUBCHEM_SHAPE_FINGERPRINT>
11181472 205 18261110752493884832
11477941 20 18199743812512621335
11578821 258 18336827606902628836
11621639 148 18337407019681402443
11621639 183 18336272314268870898
11621639 254 18341606028453720927
12522641 68 18130782339500907974
14512766 119 18272102569308437512
14747282 140 18409450263606126141
15328684 2 18261376889694645722
15419008 91 17631442532104162184
15439362 3 18124034529525825039
15513586 35 17097803371939540015
15530121 191 18128815438908428448
16728433 281 18343306942503157552
19053607 189 18124019140531013761
19303781 99 8646480783364044850
19304671 126 17557429782152149229
21057603 30 17483948290481698417
21772524 286 18410857664328262116
21792965 68 18341890788932804076
22899556 105 9510878441163179906
23516275 100 18191867812711741717
23522609 53 16910589210048236265
24893989 43 8321143551706171557
3525247 18 18048032965440751044
3918712 181 18120088373888392513
393628 179 18409165472539999237
4403749 210 18409168770721551913
44802255 64 17988647436470826182
5265222 85 18340205172956606297
57591035 28 18268689754963979215
5776283 40 18343294843453755577
6201320 215 18410291432386278418
6201320 82 18269848536059933472
6204607 403 17912931574791911185
636775 72 18410575085043491224

> <PUBCHEM_SHAPE_MULTIPOLES>
773.45
32.16
9.43
1.28
119.52
5.69
-0.11
46.92
1.11
-23.38
-1.58
-0.82
-0.07
0.5

> <PUBCHEM_SHAPE_SELFOVERLAP>
1640.633

> <PUBCHEM_SHAPE_VOLUME>
434.6

> <PUBCHEM_COORDINATE_TYPE>
2
5
10

$$$$
