10364560
  -OEChem-10052115163D

 48 51  0     0  0  0  0  0  0999 V2000
   -7.5348    1.1017   -0.3424 Cl  0  0  0  0  0  0  0  0  0  0  0  0
   -3.1570    1.1496    2.1985 F   0  0  0  0  0  0  0  0  0  0  0  0
    6.5795    0.7839    1.2785 O   0  0  0  0  0  0  0  0  0  0  0  0
    7.9489    1.4024   -0.7538 O   0  0  0  0  0  0  0  0  0  0  0  0
    4.7809   -0.1291    0.1259 N   0  0  0  0  0  0  0  0  0  0  0  0
    0.3682    1.8088   -0.0860 N   0  0  0  0  0  0  0  0  0  0  0  0
   -0.9134    2.2099   -0.1424 N   0  0  0  0  0  0  0  0  0  0  0  0
   -1.1238   -2.0871   -1.2198 N   0  0  0  0  0  0  0  0  0  0  0  0
   -1.5967   -4.1434   -0.0557 N   0  0  0  0  0  0  0  0  0  0  0  0
    1.8865   -0.1871    0.0311 C   0  0  0  0  0  0  0  0  0  0  0  0
    2.6476    0.2068    1.3106 C   0  0  0  0  0  0  0  0  0  0  0  0
    2.7311    0.1223   -1.2192 C   0  0  0  0  0  0  0  0  0  0  0  0
    4.0314   -0.4397    1.3446 C   0  0  0  0  0  0  0  0  0  0  0  0
    4.1139   -0.5220   -1.1213 C   0  0  0  0  0  0  0  0  0  0  0  0
    0.5111    0.4583   -0.0362 C   0  0  0  0  0  0  0  0  0  0  0  0
   -0.7506   -0.0671   -0.0605 C   0  0  0  0  0  0  0  0  0  0  0  0
    6.0332    0.4773    0.2156 C   0  0  0  0  0  0  0  0  0  0  0  0
   -1.5921    1.0597   -0.1266 C   0  0  0  0  0  0  0  0  0  0  0  0
   -1.0431   -1.4698   -0.0223 C   0  0  0  0  0  0  0  0  0  0  0  0
    6.7385    0.7665   -1.0853 C   0  0  0  0  0  0  0  0  0  0  0  0
   -3.0325    1.0706   -0.1751 C   0  0  0  0  0  0  0  0  0  0  0  0
   -1.2250   -2.1146    1.1848 C   0  0  0  0  0  0  0  0  0  0  0  0
   -3.7689    1.1155    1.0056 C   0  0  0  0  0  0  0  0  0  0  0  0
   -3.6799    1.0352   -1.4073 C   0  0  0  0  0  0  0  0  0  0  0  0
   -1.5017   -3.4641    1.1062 C   0  0  0  0  0  0  0  0  0  0  0  0
   -5.1629    1.1251    0.9538 C   0  0  0  0  0  0  0  0  0  0  0  0
   -5.0737    1.0447   -1.4591 C   0  0  0  0  0  0  0  0  0  0  0  0
   -1.3995   -3.4041   -1.1639 C   0  0  0  0  0  0  0  0  0  0  0  0
   -5.8153    1.0898   -0.2785 C   0  0  0  0  0  0  0  0  0  0  0  0
    1.7419   -1.2761    0.0622 H   0  0  0  0  0  0  0  0  0  0  0  0
    2.0782   -0.0936    2.1985 H   0  0  0  0  0  0  0  0  0  0  0  0
    2.7620    1.2976    1.3599 H   0  0  0  0  0  0  0  0  0  0  0  0
    2.8510    1.2075   -1.3337 H   0  0  0  0  0  0  0  0  0  0  0  0
    2.2199   -0.2380   -2.1201 H   0  0  0  0  0  0  0  0  0  0  0  0
    4.5737   -0.1025    2.2335 H   0  0  0  0  0  0  0  0  0  0  0  0
    3.9445   -1.5309    1.4082 H   0  0  0  0  0  0  0  0  0  0  0  0
    4.0251   -1.6150   -1.1108 H   0  0  0  0  0  0  0  0  0  0  0  0
    4.7016   -0.2564   -2.0017 H   0  0  0  0  0  0  0  0  0  0  0  0
    1.0911    2.5177   -0.0855 H   0  0  0  0  0  0  0  0  0  0  0  0
    6.1445    1.4318   -1.7171 H   0  0  0  0  0  0  0  0  0  0  0  0
    6.9633   -0.1662   -1.6087 H   0  0  0  0  0  0  0  0  0  0  0  0
   -1.1582   -1.6085    2.1402 H   0  0  0  0  0  0  0  0  0  0  0  0
   -3.1160    0.9990   -2.3364 H   0  0  0  0  0  0  0  0  0  0  0  0
    7.7343    2.2760   -0.3842 H   0  0  0  0  0  0  0  0  0  0  0  0
   -1.6600   -4.0544    2.0025 H   0  0  0  0  0  0  0  0  0  0  0  0
   -5.7274    1.1600    1.8819 H   0  0  0  0  0  0  0  0  0  0  0  0
   -5.5687    1.0165   -2.4265 H   0  0  0  0  0  0  0  0  0  0  0  0
   -1.4699   -3.9241   -2.1113 H   0  0  0  0  0  0  0  0  0  0  0  0
  1 29  1  0  0  0  0
  2 23  1  0  0  0  0
  3 17  2  0  0  0  0
  4 20  1  0  0  0  0
  4 44  1  0  0  0  0
  5 13  1  0  0  0  0
  5 14  1  0  0  0  0
  5 17  1  0  0  0  0
  6  7  1  0  0  0  0
  6 15  1  0  0  0  0
  6 39  1  0  0  0  0
  7 18  2  0  0  0  0
  8 19  2  0  0  0  0
  8 28  1  0  0  0  0
  9 25  1  0  0  0  0
  9 28  2  0  0  0  0
 10 11  1  0  0  0  0
 10 12  1  0  0  0  0
 10 15  1  0  0  0  0
 10 30  1  0  0  0  0
 11 13  1  0  0  0  0
 11 31  1  0  0  0  0
 11 32  1  0  0  0  0
 12 14  1  0  0  0  0
 12 33  1  0  0  0  0
 12 34  1  0  0  0  0
 13 35  1  0  0  0  0
 13 36  1  0  0  0  0
 14 37  1  0  0  0  0
 14 38  1  0  0  0  0
 15 16  2  0  0  0  0
 16 18  1  0  0  0  0
 16 19  1  0  0  0  0
 17 20  1  0  0  0  0
 18 21  1  0  0  0  0
 19 22  1  0  0  0  0
 20 40  1  0  0  0  0
 20 41  1  0  0  0  0
 21 23  2  0  0  0  0
 21 24  1  0  0  0  0
 22 25  2  0  0  0  0
 22 42  1  0  0  0  0
 23 26  1  0  0  0  0
 24 27  2  0  0  0  0
 24 43  1  0  0  0  0
 25 45  1  0  0  0  0
 26 29  2  0  0  0  0
 26 46  1  0  0  0  0
 27 29  1  0  0  0  0
 27 47  1  0  0  0  0
 28 48  1  0  0  0  0
M  END
> <PUBCHEM_COMPOUND_CID>
10364560

> <PUBCHEM_CONFORMER_RMSD>
0.8

> <PUBCHEM_CONFORMER_DIVERSEORDER>
1
68
89
134
115
125
76
10
131
93
96
118
108
63
54
114
147
133
94
28
90
53
66
136
86
140
27
127
101
143
120
74
71
83
138
106
15
52
132
64
145
37
16
102
117
60
97
103
62
79
19
130
113
84
126
75
109
135
67
44
112
50
110
91
17
149
33
48
72
65
122
129
116
29
36
121
146
59
141
47
70
104
88
119
139
142
78
20
41
55
69
4
144
111
38
22
18
87
80
45
5
61
137
3
124
77
49
34
25
26
2
81
57
9
13
100
95
46
105
73
92
43
51
58
42
128
98
14
82
107
24
148
31
39
123
7
99
35
8
40
56
23
11
85
32
21
6
12
30

> <PUBCHEM_MMFF94_PARTIAL_CHARGES>
35
1 -0.18
10 0.18
13 0.3
14 0.3
15 -0.33
16 -0.05
17 0.57
18 0.23
19 0.36
2 -0.19
20 0.34
21 0.05
22 -0.15
23 0.19
24 -0.15
25 0.16
26 -0.15
27 -0.15
28 0.47
29 0.18
3 -0.57
39 0.27
4 -0.68
42 0.15
43 0.15
44 0.4
45 0.15
46 0.15
47 0.15
48 0.15
5 -0.66
6 0.3
7 -0.71
8 -0.62
9 -0.62

> <PUBCHEM_EFFECTIVE_ROTOR_COUNT>
6.2

> <PUBCHEM_PHARMACOPHORE_FEATURES>
11
1 3 acceptor
1 4 acceptor
1 4 donor
1 6 donor
1 7 acceptor
1 8 acceptor
3 8 9 28 cation
5 6 7 15 16 18 rings
6 21 23 24 26 27 29 rings
6 5 10 11 12 13 14 rings
6 8 9 19 22 25 28 rings

> <PUBCHEM_HEAVY_ATOM_COUNT>
29

> <PUBCHEM_ATOM_DEF_STEREO_COUNT>
0

> <PUBCHEM_ATOM_UDEF_STEREO_COUNT>
0

> <PUBCHEM_BOND_DEF_STEREO_COUNT>
0

> <PUBCHEM_BOND_UDEF_STEREO_COUNT>
0

> <PUBCHEM_ISOTOPIC_ATOM_COUNT>
0

> <PUBCHEM_COMPONENT_COUNT>
1

> <PUBCHEM_CACTVS_TAUTO_COUNT>
4

> <PUBCHEM_CONFORMER_ID>
009E269000000001

> <PUBCHEM_MMFF94_ENERGY>
60.0389

> <PUBCHEM_FEATURE_SELFOVERLAP>
55.839

> <PUBCHEM_SHAPE_FINGERPRINT>
10 15 17312823784469178972
102385 1 17905889537083988349
10366900 7 17775281656250176384
10369192 42 18260265205818082317
10906281 52 18202014221891689252
11007060 377 18340760533401726009
11135609 187 18342455898700990957
11578080 2 17771900794837802217
12035758 1 18339379534049364251
12166972 35 13183011934800231914
12236239 1 17530962480235005072
12597179 24 18272373053100542878
12616971 3 17168134660118793386
12741549 16 13406793337336236078
12788726 201 17346042143561935688
13140716 1 18338237192775831040
13533116 47 18200029526516141766
13583140 156 17167867469254269473
13911987 19 18334845087946067365
14674994 50 16055744541765372846
15131766 46 15431754088701465430
1577012 14 17895475943168688300
15849732 13 17821447945628373556
17980427 23 17823140185114561622
18681886 176 18409722994039763401
19319366 153 17821721703008055962
20028762 73 18200876283882943935
20511986 3 17604136104439985300
21033650 10 17058400040396525784
21424621 283 18201165338727508009
22224240 67 18411138014027991225
22956985 138 17610615315930769675
23198884 109 17489871522880946248
23559900 14 18272366521008906792
23569943 247 17415013347799209718
23576562 1 18114744961893255709
249057 3 18335424552623280246
25269216 80 17970935438593474014
283562 15 18270121180552079185
3178227 256 18335428954764688345
4015057 19 17632005451017275064
404807 14 14831943857608224108
4258327 124 18187656854933067308
4340502 62 16226052149961940697
5486654 2 18411980247786512153
563151 97 18196652900601007705
5758199 1 18343304730647350993
59755656 520 18342170055795268463
6669772 16 18339081488741445511
7226269 152 18412544301504388953

> <PUBCHEM_SHAPE_MULTIPOLES>
554.76
16.59
3.06
1.47
15.81
4.78
-0.19
-11.97
1.69
-2.66
0.15
-0.08
0.09
-0.22

> <PUBCHEM_SHAPE_SELFOVERLAP>
1201.474

> <PUBCHEM_SHAPE_VOLUME>
304

> <PUBCHEM_COORDINATE_TYPE>
2
5
10

$$$$
