24905163
  -OEChem-10052115143D

 39 42  0     0  0  0  0  0  0999 V2000
    1.0125   -1.0248    1.4698 S   0  0  0  0  0  0  0  0  0  0  0  0
    6.3768    1.4451   -1.6318 O   0  0  0  0  0  0  0  0  0  0  0  0
   -3.0182    1.1572    0.0924 N   0  0  0  0  0  0  0  0  0  0  0  0
   -1.7093    1.3916    0.3011 N   0  0  0  0  0  0  0  0  0  0  0  0
   -4.5103   -0.6773   -0.4277 N   0  0  0  0  0  0  0  0  0  0  0  0
   -3.3035   -2.7851   -0.6539 N   0  0  0  0  0  0  0  0  0  0  0  0
   -0.9384   -2.9528   -0.3836 N   0  0  0  0  0  0  0  0  0  0  0  0
   -3.9583    2.2502    0.1695 C   0  0  0  0  0  0  0  0  0  0  0  0
   -2.0907   -0.8171   -0.1455 C   0  0  0  0  0  0  0  0  0  0  0  0
   -3.3017   -0.1484   -0.1789 C   0  0  0  0  0  0  0  0  0  0  0  0
   -1.1499    0.1855    0.1548 C   0  0  0  0  0  0  0  0  0  0  0  0
    0.3062    0.0018    0.3067 C   0  0  0  0  0  0  0  0  0  0  0  0
   -3.9866    2.8710    1.5684 C   0  0  0  0  0  0  0  0  0  0  0  0
   -3.6731    3.3142   -0.8934 C   0  0  0  0  0  0  0  0  0  0  0  0
    2.5949    0.2754   -0.1085 C   0  0  0  0  0  0  0  0  0  0  0  0
    1.2515    0.6327   -0.4664 C   0  0  0  0  0  0  0  0  0  0  0  0
   -2.1168   -2.1852   -0.3952 C   0  0  0  0  0  0  0  0  0  0  0  0
    2.6107   -0.6370    0.9512 C   0  0  0  0  0  0  0  0  0  0  0  0
    3.8345    0.6948   -0.6491 C   0  0  0  0  0  0  0  0  0  0  0  0
    3.8193   -1.1340    1.4773 C   0  0  0  0  0  0  0  0  0  0  0  0
   -4.4107   -2.0050   -0.6542 C   0  0  0  0  0  0  0  0  0  0  0  0
    5.0352    0.2036   -0.1296 C   0  0  0  0  0  0  0  0  0  0  0  0
    5.0253   -0.7007    0.9228 C   0  0  0  0  0  0  0  0  0  0  0  0
    6.3003    0.6442   -0.6960 C   0  0  0  0  0  0  0  0  0  0  0  0
   -4.9549    1.8389   -0.0315 H   0  0  0  0  0  0  0  0  0  0  0  0
   -3.0290    3.3380    1.8240 H   0  0  0  0  0  0  0  0  0  0  0  0
   -4.1991    2.1105    2.3279 H   0  0  0  0  0  0  0  0  0  0  0  0
   -4.7636    3.6399    1.6343 H   0  0  0  0  0  0  0  0  0  0  0  0
   -2.7033    3.7981   -0.7325 H   0  0  0  0  0  0  0  0  0  0  0  0
   -4.4436    4.0923   -0.8780 H   0  0  0  0  0  0  0  0  0  0  0  0
   -3.6612    2.8708   -1.8953 H   0  0  0  0  0  0  0  0  0  0  0  0
    1.0075    1.3259   -1.2633 H   0  0  0  0  0  0  0  0  0  0  0  0
    3.8328    1.4041   -1.4735 H   0  0  0  0  0  0  0  0  0  0  0  0
    3.8210   -1.8425    2.3008 H   0  0  0  0  0  0  0  0  0  0  0  0
   -5.3435   -2.5171   -0.8648 H   0  0  0  0  0  0  0  0  0  0  0  0
    5.9560   -1.0868    1.3320 H   0  0  0  0  0  0  0  0  0  0  0  0
   -0.0386   -2.5322   -0.2037 H   0  0  0  0  0  0  0  0  0  0  0  0
   -1.0021   -3.9444   -0.5715 H   0  0  0  0  0  0  0  0  0  0  0  0
    7.2171    0.2255   -0.2471 H   0  0  0  0  0  0  0  0  0  0  0  0
  1 12  1  0  0  0  0
  1 18  1  0  0  0  0
  2 24  2  0  0  0  0
  3  4  1  0  0  0  0
  3  8  1  0  0  0  0
  3 10  1  0  0  0  0
  4 11  2  0  0  0  0
  5 10  2  0  0  0  0
  5 21  1  0  0  0  0
  6 17  1  0  0  0  0
  6 21  2  0  0  0  0
  7 17  1  0  0  0  0
  7 37  1  0  0  0  0
  7 38  1  0  0  0  0
  8 13  1  0  0  0  0
  8 14  1  0  0  0  0
  8 25  1  0  0  0  0
  9 10  1  0  0  0  0
  9 11  1  0  0  0  0
  9 17  2  0  0  0  0
 11 12  1  0  0  0  0
 12 16  2  0  0  0  0
 13 26  1  0  0  0  0
 13 27  1  0  0  0  0
 13 28  1  0  0  0  0
 14 29  1  0  0  0  0
 14 30  1  0  0  0  0
 14 31  1  0  0  0  0
 15 16  1  0  0  0  0
 15 18  2  0  0  0  0
 15 19  1  0  0  0  0
 16 32  1  0  0  0  0
 18 20  1  0  0  0  0
 19 22  2  0  0  0  0
 19 33  1  0  0  0  0
 20 23  2  0  0  0  0
 20 34  1  0  0  0  0
 21 35  1  0  0  0  0
 22 23  1  0  0  0  0
 22 24  1  0  0  0  0
 23 36  1  0  0  0  0
 24 39  1  0  0  0  0
M  END
> <PUBCHEM_COMPOUND_CID>
24905163

> <PUBCHEM_CONFORMER_RMSD>
0.6

> <PUBCHEM_CONFORMER_DIVERSEORDER>
1
8
15
4
14
6
3
13
12
2
7
11
10
9
5

> <PUBCHEM_MMFF94_PARTIAL_CHARGES>
28
1 -0.08
10 0.11
11 0.29
12 0.04
16 -0.15
17 0.41
18 0.04
19 -0.15
2 -0.57
20 -0.15
21 0.47
22 0.09
23 -0.15
24 0.42
3 0.31
32 0.15
33 0.15
34 0.15
35 0.15
36 0.15
37 0.4
38 0.4
39 0.06
4 -0.71
5 -0.57
6 -0.62
7 -0.9
8 0.26

> <PUBCHEM_EFFECTIVE_ROTOR_COUNT>
3

> <PUBCHEM_PHARMACOPHORE_FEATURES>
11
1 2 acceptor
1 4 acceptor
1 7 cation
1 7 donor
3 3 5 10 cation
3 5 6 21 cation
3 8 13 14 hydrophobe
5 1 12 15 16 18 rings
5 3 4 9 10 11 rings
6 15 18 19 20 22 23 rings
6 5 6 9 10 17 21 rings

> <PUBCHEM_HEAVY_ATOM_COUNT>
24

> <PUBCHEM_ATOM_DEF_STEREO_COUNT>
0

> <PUBCHEM_ATOM_UDEF_STEREO_COUNT>
0

> <PUBCHEM_BOND_DEF_STEREO_COUNT>
0

> <PUBCHEM_BOND_UDEF_STEREO_COUNT>
0

> <PUBCHEM_ISOTOPIC_ATOM_COUNT>
0

> <PUBCHEM_COMPONENT_COUNT>
1

> <PUBCHEM_CACTVS_TAUTO_COUNT>
5

> <PUBCHEM_CONFORMER_ID>
017C05CB00000001

> <PUBCHEM_MMFF94_ENERGY>
51.6524

> <PUBCHEM_FEATURE_SELFOVERLAP>
56.16

> <PUBCHEM_SHAPE_FINGERPRINT>
10411042 1 17980759660771115911
10595046 47 18335137639822450582
10912923 1 18187641397535166216
11056379 131 18272090530241086183
11273773 42 17969237788165554284
11315181 36 18334856156092275004
11796584 16 17988365858963142958
12107183 9 17902783068753175114
12236239 1 18113614590508420146
12390115 104 18059583430106079113
12403259 415 17561359599954948848
12616971 3 17749946666499779090
12788726 201 18338514243968109363
12954195 1 18272934925243343551
13140716 1 18197775708294563979
13167823 11 18334852823123988746
13583140 156 17417513762194963674
14251757 5 18267867366219266790
14294032 229 18270962342013687689
14508225 48 18197764695919289549
14528608 73 18187928426231709524
14790565 3 18259988154589009916
15042514 8 18268427013928484415
15250474 111 18334562543549230786
16752209 62 18269817805663297763
17844677 252 18201439220492066176
1813 80 13901366905036786944
19427546 20 18335419093250394053
20101258 96 18263091075128878209
20511986 3 18041543794094465188
20871999 31 18343300379154201554
21033648 29 16630232650313029802
21033650 10 18265358156583791572
21065198 48 18333445431065639650
21267235 1 18266462186449019703
21756936 100 17895486877015869696
22907989 373 18190717814021748405
2297311 6 18130793407557301495
23081809 10 18040435499891461180
23175994 123 16415199013416159290
23402655 69 18333168358709865240
23557571 272 17989496220528336692
23559900 14 18200584938126582608
24771293 8 18187650267408504852
25147074 1 18114454592350075594
268830 7 17168136807138477744
34797466 226 17774728679443203996
350125 39 18411135836284588161
4214541 1 18412259527982037632
474 4 17313669356018026252
497634 4 18334009514526443765
5104073 3 18334008376824282344
543368 44 18114747139499462380
559249 180 18338508630556551610
573450 72 18337380578633327250
57527295 17 16342855413706719501
59755656 520 17345492404901497331
6327066 14 18117552930218627613
633830 44 17604150329266266106
7808743 9 18339361859805695481

> <PUBCHEM_SHAPE_MULTIPOLES>
466.98
13.12
3.04
1.22
14.73
0.38
0.28
4.55
-2.64
-5.67
-0.38
0.73
0.24
-2.47

> <PUBCHEM_SHAPE_SELFOVERLAP>
1026.347

> <PUBCHEM_SHAPE_VOLUME>
255.3

> <PUBCHEM_COORDINATE_TYPE>
2
5
10

$$$$
