49830791
  -OEChem-10052115183D

 34 36  0     0  0  0  0  0  0999 V2000
    4.8854   -0.6709   -0.0003 S   0  0  0  0  0  0  0  0  0  0  0  0
   -4.2998   -0.0063    0.0017 S   0  0  0  0  0  0  0  0  0  0  0  0
    5.5265   -0.3241   -1.2614 O   0  0  0  0  0  0  0  0  0  0  0  0
    5.5136   -0.2932    1.2576 O   0  0  0  0  0  0  0  0  0  0  0  0
   -4.8361   -2.9228   -0.0109 O   0  0  0  0  0  0  0  0  0  0  0  0
   -2.1724    3.4074   -0.0049 N   0  0  0  0  0  0  0  0  0  0  0  0
   -2.6639   -3.6573    0.0058 N   0  0  0  0  0  0  0  0  0  0  0  0
   -0.6844    1.4991    0.0001 C   0  0  0  0  0  0  0  0  0  0  0  0
   -1.7953    0.6340    0.0013 C   0  0  0  0  0  0  0  0  0  0  0  0
    0.6588    0.9751    0.0002 C   0  0  0  0  0  0  0  0  0  0  0  0
    3.2583   -0.0373    0.0001 C   0  0  0  0  0  0  0  0  0  0  0  0
   -3.0724    1.2026   -0.0005 C   0  0  0  0  0  0  0  0  0  0  0  0
    1.3098    0.7245    1.2082 C   0  0  0  0  0  0  0  0  0  0  0  0
    1.3076    0.7192   -1.2078 C   0  0  0  0  0  0  0  0  0  0  0  0
   -1.8657   -0.7994    0.0038 C   0  0  0  0  0  0  0  0  0  0  0  0
    2.6095    0.2184    1.2082 C   0  0  0  0  0  0  0  0  0  0  0  0
    2.6074    0.2132   -1.2079 C   0  0  0  0  0  0  0  0  0  0  0  0
   -0.9412    2.8606   -0.0029 C   0  0  0  0  0  0  0  0  0  0  0  0
   -3.1570   -1.2713    0.0042 C   0  0  0  0  0  0  0  0  0  0  0  0
   -3.2465    2.5880   -0.0035 C   0  0  0  0  0  0  0  0  0  0  0  0
    4.6723   -2.4367    0.0036 C   0  0  0  0  0  0  0  0  0  0  0  0
   -3.6145   -2.6230    0.0052 C   0  0  0  0  0  0  0  0  0  0  0  0
    0.8177    0.9167    2.1587 H   0  0  0  0  0  0  0  0  0  0  0  0
    0.8139    0.9073   -2.1584 H   0  0  0  0  0  0  0  0  0  0  0  0
   -0.9923   -1.4399    0.0050 H   0  0  0  0  0  0  0  0  0  0  0  0
    3.0945    0.0241    2.1606 H   0  0  0  0  0  0  0  0  0  0  0  0
    3.0916    0.0151   -2.1600 H   0  0  0  0  0  0  0  0  0  0  0  0
   -0.1313    3.5852   -0.0043 H   0  0  0  0  0  0  0  0  0  0  0  0
   -4.2205    3.0619   -0.0050 H   0  0  0  0  0  0  0  0  0  0  0  0
    5.6624   -2.8975    0.0082 H   0  0  0  0  0  0  0  0  0  0  0  0
    4.1232   -2.7260    0.9016 H   0  0  0  0  0  0  0  0  0  0  0  0
    4.1286   -2.7312   -0.8961 H   0  0  0  0  0  0  0  0  0  0  0  0
   -2.9613   -4.6275    0.0003 H   0  0  0  0  0  0  0  0  0  0  0  0
   -1.6633   -3.4919    0.0118 H   0  0  0  0  0  0  0  0  0  0  0  0
  1  3  2  0  0  0  0
  1  4  2  0  0  0  0
  1 11  1  0  0  0  0
  1 21  1  0  0  0  0
  2 12  1  0  0  0  0
  2 19  1  0  0  0  0
  5 22  2  0  0  0  0
  6 18  1  0  0  0  0
  6 20  2  0  0  0  0
  7 22  1  0  0  0  0
  7 33  1  0  0  0  0
  7 34  1  0  0  0  0
  8  9  1  0  0  0  0
  8 10  1  0  0  0  0
  8 18  2  0  0  0  0
  9 12  2  0  0  0  0
  9 15  1  0  0  0  0
 10 13  2  0  0  0  0
 10 14  1  0  0  0  0
 11 16  2  0  0  0  0
 11 17  1  0  0  0  0
 12 20  1  0  0  0  0
 13 16  1  0  0  0  0
 13 23  1  0  0  0  0
 14 17  2  0  0  0  0
 14 24  1  0  0  0  0
 15 19  2  0  0  0  0
 15 25  1  0  0  0  0
 16 26  1  0  0  0  0
 17 27  1  0  0  0  0
 18 28  1  0  0  0  0
 19 22  1  0  0  0  0
 20 29  1  0  0  0  0
 21 30  1  0  0  0  0
 21 31  1  0  0  0  0
 21 32  1  0  0  0  0
M  END
> <PUBCHEM_COMPOUND_CID>
49830791

> <PUBCHEM_CONFORMER_RMSD>
0.6

> <PUBCHEM_CONFORMER_DIVERSEORDER>
1
17
10
9
15
12
11
6
13
18
7
5
8
14
16
2
4
3

> <PUBCHEM_MMFF94_PARTIAL_CHARGES>
28
1 1.2
11 -0.01
12 0.04
13 -0.15
14 -0.15
15 -0.15
16 -0.15
17 -0.15
18 0.16
19 -0.05
2 -0.08
20 0.16
21 0.11
22 0.71
23 0.15
24 0.15
25 0.15
26 0.15
27 0.15
28 0.15
29 0.15
3 -0.65
33 0.37
34 0.37
4 -0.65
5 -0.57
6 -0.62
7 -0.8

> <PUBCHEM_EFFECTIVE_ROTOR_COUNT>
3

> <PUBCHEM_PHARMACOPHORE_FEATURES>
8
1 3 acceptor
1 4 acceptor
1 5 acceptor
1 6 acceptor
1 7 donor
5 2 9 12 15 19 rings
6 10 11 13 14 16 17 rings
6 6 8 9 12 18 20 rings

> <PUBCHEM_HEAVY_ATOM_COUNT>
22

> <PUBCHEM_ATOM_DEF_STEREO_COUNT>
0

> <PUBCHEM_ATOM_UDEF_STEREO_COUNT>
0

> <PUBCHEM_BOND_DEF_STEREO_COUNT>
0

> <PUBCHEM_BOND_UDEF_STEREO_COUNT>
0

> <PUBCHEM_ISOTOPIC_ATOM_COUNT>
0

> <PUBCHEM_COMPONENT_COUNT>
1

> <PUBCHEM_CACTVS_TAUTO_COUNT>
2

> <PUBCHEM_CONFORMER_ID>
02F85B8700000001

> <PUBCHEM_MMFF94_ENERGY>
52.9764

> <PUBCHEM_FEATURE_SELFOVERLAP>
40.68

> <PUBCHEM_SHAPE_FINGERPRINT>
10319926 262 18198040535993639314
10366900 7 17916856928888689396
10595046 47 18334300881614761444
10616163 171 18410857633482288630
11056379 131 18339370668994375916
11796584 16 18197219153326017102
12236239 1 17604154726711695284
12363563 72 18267025140549280039
12523318 42 18340756079546786690
12553582 1 18264774440395013155
12616971 3 17241048700394560872
12633257 1 17846233158480183377
12990986 174 18338516451317431595
13140716 1 18342178920824311585
13167823 11 18188776037747883184
13583140 156 17916850358258418792
13590594 115 11924268444695035347
13631057 29 18411702110489825450
13911987 19 14635452458786931178
14251764 30 17971207052087948323
14844126 61 18409163316360688067
14866123 147 18412549787079537451
15042514 8 18410016529257909953
15099037 37 18343584044522191308
15250474 111 18189329087839396794
15352361 1 18339079405697714983
15927050 60 18125438602043004311
16752209 62 18261940874518652945
17492 89 18409731772699546222
17804303 29 18342457041019931897
19141452 34 18263647260144837156
200 152 16877946014233472956
20600515 1 18271816691632409845
21065201 7 18341041922637144960
21728266 224 18334849507329881146
23184049 29 18266456688853723625
23402539 116 18341043017801584149
23503958 8 18410009914496577642
23557571 272 18202007581814376652
23559900 14 18412535526944530968
23598288 3 18114762455421651821
3004659 81 18041557052289314503
335352 9 18410574003423330837
3421961 26 17980200009051059499
3882209 13 16975578510943533238
4214541 1 18338517418075326848
463206 1 18118683459588648499
5104073 3 18201716250151109232
559249 180 18043246847036790394
56633871 153 18197224865738659099
5924683 9 18411133619432395930
59755656 215 18339075995904970071
59755656 520 18126001564702550873
602551 16 18412261714457813120
633830 44 16661789678118820332
67856867 119 18188494687484324588
7970288 3 18266458904878162927
9709674 26 18199472077856462878

> <PUBCHEM_SHAPE_MULTIPOLES>
432.88
11.09
3.54
0.99
10.92
1.38
0
6.68
0.01
-5.47
0
1.14
-0.12
0.01

> <PUBCHEM_SHAPE_SELFOVERLAP>
928.589

> <PUBCHEM_SHAPE_VOLUME>
241.3

> <PUBCHEM_COORDINATE_TYPE>
2
5
10

$$$$
