49830587
  -OEChem-10062121533D

 35 37  0     0  0  0  0  0  0999 V2000
    6.3710   -1.6755   -0.9473 O   0  0  0  0  0  0  0  0  0  0  0  0
    4.1760   -0.2515    0.1436 N   0  0  0  0  0  0  0  0  0  0  0  0
    3.0024    1.8193    0.1316 N   0  0  0  0  0  0  0  0  0  0  0  0
   -5.4482   -0.3236   -0.6854 N   0  0  0  0  0  0  0  0  0  0  0  0
    0.5630    0.4144    0.0735 C   0  0  0  0  0  0  0  0  0  0  0  0
    0.5708    1.8246    0.0816 C   0  0  0  0  0  0  0  0  0  0  0  0
   -1.8685    0.4492    0.0236 C   0  0  0  0  0  0  0  0  0  0  0  0
   -0.6675   -0.2620    0.0444 C   0  0  0  0  0  0  0  0  0  0  0  0
    1.7838   -0.2699    0.0946 C   0  0  0  0  0  0  0  0  0  0  0  0
    2.9561    0.4701    0.1230 C   0  0  0  0  0  0  0  0  0  0  0  0
   -0.6438    2.5300    0.0603 C   0  0  0  0  0  0  0  0  0  0  0  0
   -1.8566    1.8420    0.0317 C   0  0  0  0  0  0  0  0  0  0  0  0
   -3.1286   -0.2615   -0.0070 C   0  0  0  0  0  0  0  0  0  0  0  0
    1.8128    2.4620    0.1106 C   0  0  0  0  0  0  0  0  0  0  0  0
    4.2272   -1.6770    0.1361 C   0  0  0  0  0  0  0  0  0  0  0  0
   -3.2588   -1.5156    0.5791 C   0  0  0  0  0  0  0  0  0  0  0  0
    5.6711   -2.1455    0.1980 C   0  0  0  0  0  0  0  0  0  0  0  0
   -4.2433    0.2862   -0.6213 C   0  0  0  0  0  0  0  0  0  0  0  0
   -4.4824   -2.1744    0.5337 C   0  0  0  0  0  0  0  0  0  0  0  0
   -5.5365   -1.5412   -0.1046 C   0  0  0  0  0  0  0  0  0  0  0  0
   -0.6538   -1.3497    0.0092 H   0  0  0  0  0  0  0  0  0  0  0  0
    1.7664   -1.3547    0.0864 H   0  0  0  0  0  0  0  0  0  0  0  0
   -0.6520    3.6176    0.0721 H   0  0  0  0  0  0  0  0  0  0  0  0
   -2.7682    2.4334    0.0438 H   0  0  0  0  0  0  0  0  0  0  0  0
    1.8898    3.5458    0.1181 H   0  0  0  0  0  0  0  0  0  0  0  0
    5.0265    0.2997    0.1606 H   0  0  0  0  0  0  0  0  0  0  0  0
    3.7774   -2.0649   -0.7858 H   0  0  0  0  0  0  0  0  0  0  0  0
    3.6979   -2.0963    0.9996 H   0  0  0  0  0  0  0  0  0  0  0  0
   -2.4429   -2.0030    1.1054 H   0  0  0  0  0  0  0  0  0  0  0  0
    5.7164   -3.2390    0.2080 H   0  0  0  0  0  0  0  0  0  0  0  0
    6.1733   -1.7614    1.0923 H   0  0  0  0  0  0  0  0  0  0  0  0
   -4.2268    1.2459   -1.1281 H   0  0  0  0  0  0  0  0  0  0  0  0
   -4.6093   -3.1498    0.9894 H   0  0  0  0  0  0  0  0  0  0  0  0
   -6.5121   -2.0122   -0.1659 H   0  0  0  0  0  0  0  0  0  0  0  0
    7.2855   -1.9978   -0.8745 H   0  0  0  0  0  0  0  0  0  0  0  0
  1 17  1  0  0  0  0
  1 35  1  0  0  0  0
  2 10  1  0  0  0  0
  2 15  1  0  0  0  0
  2 26  1  0  0  0  0
  3 10  2  0  0  0  0
  3 14  1  0  0  0  0
  4 18  1  0  0  0  0
  4 20  2  0  0  0  0
  5  6  1  0  0  0  0
  5  8  1  0  0  0  0
  5  9  2  0  0  0  0
  6 11  1  0  0  0  0
  6 14  2  0  0  0  0
  7  8  2  0  0  0  0
  7 12  1  0  0  0  0
  7 13  1  0  0  0  0
  8 21  1  0  0  0  0
  9 10  1  0  0  0  0
  9 22  1  0  0  0  0
 11 12  2  0  0  0  0
 11 23  1  0  0  0  0
 12 24  1  0  0  0  0
 13 16  1  0  0  0  0
 13 18  2  0  0  0  0
 14 25  1  0  0  0  0
 15 17  1  0  0  0  0
 15 27  1  0  0  0  0
 15 28  1  0  0  0  0
 16 19  2  0  0  0  0
 16 29  1  0  0  0  0
 17 30  1  0  0  0  0
 17 31  1  0  0  0  0
 18 32  1  0  0  0  0
 19 20  1  0  0  0  0
 19 33  1  0  0  0  0
 20 34  1  0  0  0  0
M  END
> <PUBCHEM_COMPOUND_CID>
49830587

> <PUBCHEM_CONFORMER_RMSD>
0.6

> <PUBCHEM_CONFORMER_DIVERSEORDER>
3
11
30
20
22
33
18
5
15
31
4
28
29
7
6
24
17
21
34
32
19
16
25
8
9
26
27
1
14
23
12
13
2
10

> <PUBCHEM_MMFF94_PARTIAL_CHARGES>
27
1 -0.68
10 0.41
11 -0.15
12 -0.15
14 0.16
15 0.37
16 -0.15
17 0.28
18 0.16
19 -0.15
2 -0.87
20 0.16
21 0.15
22 0.15
23 0.15
24 0.15
25 0.15
26 0.4
29 0.15
3 -0.62
32 0.15
33 0.15
34 0.15
35 0.4
4 -0.62
8 -0.15
9 -0.15

> <PUBCHEM_EFFECTIVE_ROTOR_COUNT>
4

> <PUBCHEM_PHARMACOPHORE_FEATURES>
8
1 1 acceptor
1 1 donor
1 2 donor
1 4 acceptor
3 2 3 10 cation
6 3 5 6 9 10 14 rings
6 4 13 16 18 19 20 rings
6 5 6 7 8 11 12 rings

> <PUBCHEM_HEAVY_ATOM_COUNT>
20

> <PUBCHEM_ATOM_DEF_STEREO_COUNT>
0

> <PUBCHEM_ATOM_UDEF_STEREO_COUNT>
0

> <PUBCHEM_BOND_DEF_STEREO_COUNT>
0

> <PUBCHEM_BOND_UDEF_STEREO_COUNT>
0

> <PUBCHEM_ISOTOPIC_ATOM_COUNT>
0

> <PUBCHEM_COMPONENT_COUNT>
1

> <PUBCHEM_CACTVS_TAUTO_COUNT>
3

> <PUBCHEM_CONFORMER_ID>
02F85ABB00000003

> <PUBCHEM_MMFF94_ENERGY>
68.5716

> <PUBCHEM_FEATURE_SELFOVERLAP>
40.626

> <PUBCHEM_SHAPE_FINGERPRINT>
10411042 1 18411419492782814744
10622 236 17485905730569486191
11796584 16 17749659792311561523
12032990 46 18410011056736449233
12107183 9 18270411469007117665
12403259 118 12679455417757838891
12555020 224 18336817667968017047
12596602 18 14764336141863200486
12760667 363 18341894069718079667
12916754 54 18411420609168558144
13134695 92 18058442274396786041
13140716 1 18343304725624948753
13288520 33 18411419475280951903
13533116 47 18200592613206663017
13540713 4 18267846359861471168
13740256 8 18410577271249948906
13862211 1 18342453755480830815
13955234 65 18126846238181526568
14123256 34 18341058453766300622
14508225 48 18333726897004724877
14790565 3 17256247571178981636
14866123 147 18196093240370768585
15042514 8 18268149768761084001
15188451 53 15984525820092725911
15196674 1 18409728499813056345
15352361 1 18410292497469446578
17492 89 18122625217754277003
18222031 100 18341608205448329442
193927 3 18272378550863838030
19784866 240 18413394223892069273
200 152 18201717392686210225
20028762 73 18131346440273864998
20281475 54 18410018744770314993
20374829 77 18335136470937289794
20403669 9 18341616988298013582
20645477 70 18335415819873358513
21033650 10 16660918885952338357
21130935 74 18198626721689067675
21267235 1 18409735062575760747
21279426 13 18334566937405645829
21682296 61 18130794408395847894
221490 88 18262240057059800369
22393880 68 17968363607411617195
23402539 116 18340482270775475613
23522609 53 18122942842906494956
23559900 14 18335414703234849545
25147074 1 18340225015215007120
2838139 119 8141795059253126034
2871803 45 18187358839672821873
3004659 81 18113615690341775322
312423 11 18411711988508716720
335352 9 18338233770172192965
3421961 26 18340766035297010632
4214541 1 18408318900463504333
465052 167 18272375286768002998
5104073 3 18273497870569794409
559249 180 18340484461746808113
59682541 35 18272356587398132026
59755656 215 18336543794460908631
636775 8 18341344293253022710
76465 3 18410855443264862264
77188 2 18412544335859515240
7970288 3 18337950083071663946
8863177 126 18043262429616783323
9709674 26 18044376256559973315

> <PUBCHEM_SHAPE_MULTIPOLES>
390.78
12.93
2.79
0.71
4.92
0.58
-0.03
-12.16
-1.82
1.38
0.21
-0.08
-0.11
0.68

> <PUBCHEM_SHAPE_SELFOVERLAP>
857.199

> <PUBCHEM_SHAPE_VOLUME>
210.5

> <PUBCHEM_COORDINATE_TYPE>
2
5
10

$$$$
