1268887
  -OEChem-10062121553D

 23 25  0     0  0  0  0  0  0999 V2000
    3.4384   -3.3897    0.0681 Br  0  0  0  0  0  0  0  0  0  0  0  0
   -2.2624   -0.3058   -1.4650 S   0  0  0  0  0  0  0  0  0  0  0  0
   -5.0735   -1.4566   -1.0882 S   0  0  0  0  0  0  0  0  0  0  0  0
   -1.7214    0.1053    2.3666 O   0  0  0  0  0  0  0  0  0  0  0  0
   -0.6207    3.0105   -0.2106 O   0  0  0  0  0  0  0  0  0  0  0  0
    1.5999    2.3094   -0.2237 N   0  0  0  0  0  0  0  0  0  0  0  0
   -3.3442   -0.6442    0.8306 N   0  0  0  0  0  0  0  0  0  0  0  0
   -0.0590    0.6769   -0.0874 C   0  0  0  0  0  0  0  0  0  0  0  0
    1.1162    0.0449   -0.0787 C   0  0  0  0  0  0  0  0  0  0  0  0
    2.1063    1.1222   -0.1663 C   0  0  0  0  0  0  0  0  0  0  0  0
   -1.3770    0.1319   -0.0228 C   0  0  0  0  0  0  0  0  0  0  0  0
    0.2318    2.1360   -0.1801 C   0  0  0  0  0  0  0  0  0  0  0  0
    1.5196   -1.3274   -0.0073 C   0  0  0  0  0  0  0  0  0  0  0  0
   -2.1036   -0.1163    1.0759 C   0  0  0  0  0  0  0  0  0  0  0  0
    3.5305    0.7349   -0.1781 C   0  0  0  0  0  0  0  0  0  0  0  0
    2.8322   -1.6240   -0.0217 C   0  0  0  0  0  0  0  0  0  0  0  0
    3.8383   -0.5711   -0.1088 C   0  0  0  0  0  0  0  0  0  0  0  0
   -3.6514   -0.8369   -0.5025 C   0  0  0  0  0  0  0  0  0  0  0  0
    0.7565   -2.0955    0.0570 H   0  0  0  0  0  0  0  0  0  0  0  0
    4.2870    1.5066   -0.2422 H   0  0  0  0  0  0  0  0  0  0  0  0
   -3.9822   -0.8728    1.5846 H   0  0  0  0  0  0  0  0  0  0  0  0
    4.8850   -0.8620   -0.1172 H   0  0  0  0  0  0  0  0  0  0  0  0
   -2.4659   -0.1776    2.9249 H   0  0  0  0  0  0  0  0  0  0  0  0
  1 16  1  0  0  0  0
  2 11  1  0  0  0  0
  2 18  1  0  0  0  0
  3 18  2  0  0  0  0
  4 14  1  0  0  0  0
  4 23  1  0  0  0  0
  5 12  2  0  0  0  0
  6 10  2  0  0  0  0
  6 12  1  0  0  0  0
  7 14  1  0  0  0  0
  7 18  1  0  0  0  0
  7 21  1  0  0  0  0
  8  9  2  0  0  0  0
  8 11  1  0  0  0  0
  8 12  1  0  0  0  0
  9 10  1  0  0  0  0
  9 13  1  0  0  0  0
 10 15  1  0  0  0  0
 11 14  2  0  0  0  0
 13 16  2  0  0  0  0
 13 19  1  0  0  0  0
 15 17  2  0  0  0  0
 15 20  1  0  0  0  0
 16 17  1  0  0  0  0
 17 22  1  0  0  0  0
M  END
> <PUBCHEM_COMPOUND_CID>
1268887

> <PUBCHEM_CONFORMER_RMSD>
0.6

> <PUBCHEM_CONFORMER_DIVERSEORDER>
1
5
3
2
6
4

> <PUBCHEM_MMFF94_PARTIAL_CHARGES>
23
1 -0.11
10 0.42
11 0.1
12 0.77
13 -0.15
14 0.19
15 -0.14
16 0.11
17 -0.15
18 0.58
19 0.15
2 -0.24
20 0.15
21 0.37
22 0.15
23 0.45
3 -0.38
4 -0.53
5 -0.57
6 -0.66
7 -0.54
8 0.01
9 0.01

> <PUBCHEM_EFFECTIVE_ROTOR_COUNT>
1

> <PUBCHEM_PHARMACOPHORE_FEATURES>
9
1 1 hydrophobe
1 3 acceptor
1 4 donor
1 5 acceptor
1 6 acceptor
1 6 donor
5 2 7 11 14 18 rings
5 6 8 9 10 12 rings
6 9 10 13 15 16 17 rings

> <PUBCHEM_HEAVY_ATOM_COUNT>
18

> <PUBCHEM_ATOM_DEF_STEREO_COUNT>
0

> <PUBCHEM_ATOM_UDEF_STEREO_COUNT>
0

> <PUBCHEM_BOND_DEF_STEREO_COUNT>
0

> <PUBCHEM_BOND_UDEF_STEREO_COUNT>
0

> <PUBCHEM_ISOTOPIC_ATOM_COUNT>
0

> <PUBCHEM_COMPONENT_COUNT>
1

> <PUBCHEM_CACTVS_TAUTO_COUNT>
11

> <PUBCHEM_CONFORMER_ID>
00135C9700000001

> <PUBCHEM_MMFF94_ENERGY>
38.0773

> <PUBCHEM_FEATURE_SELFOVERLAP>
45.821

> <PUBCHEM_SHAPE_FINGERPRINT>
11471102 20 18335980981808952860
11578080 2 17702356542906018921
12173636 292 8717667619637062074
12236239 1 17774726462754379951
12363563 72 18262801744440932274
12553582 1 18337685113395360610
12596599 1 17844824593532655062
13083527 12 18264470850694960106
13140716 1 18123184864961464416
13544653 18 18334017151094541510
13583140 156 14404331742831506702
13862211 1 18410008828518945094
13911987 19 18044109066681562340
14251717 144 18338514243651227718
14576447 43 18270676579562233767
15375462 189 18060415841400779882
16945 1 18409173229424593140
18186145 218 17385995196533367221
200 152 18272367620367144503
20600515 1 15721063115503191949
20645477 70 18261668276558718383
20671657 53 18411978053306059535
21285901 2 17821996623526848367
21501502 16 18192718847764274796
22112679 90 17560254612117659569
221357 26 18262219089836615925
221490 88 18119249716777182927
2255824 54 18196373834573111276
2334 1 18265055734988105676
23419403 2 14859690179722242520
23526113 38 17967808345064371659
23598291 2 18058468610813920069
23728640 28 17112402321675990098
2748010 2 18193835943104133932
2871803 45 18335138678967230942
33382 64 18195247939600032939
33824 294 18337949103617887170
46194498 28 17677324047839000231
59682541 52 18265307639468782639
77492 1 17846228807673160601
81228 2 18042405729485450364
9709674 26 18260551086887821410

> <PUBCHEM_SHAPE_MULTIPOLES>
362.37
7.87
2.89
1.18
4.36
0.12
0.5
6.13
-1.39
-2.55
-0.3
1.24
0.11
-0.65

> <PUBCHEM_SHAPE_SELFOVERLAP>
767.889

> <PUBCHEM_SHAPE_VOLUME>
208.8

> <PUBCHEM_COORDINATE_TYPE>
2
5
10

$$$$
