11442891
  -OEChem-10062122003D

 65 69  0     1  0  0  0  0  0999 V2000
    6.2150   -0.2714    1.7027 O   0  0  0  0  0  0  0  0  0  0  0  0
    4.1423    1.7322    0.5538 O   0  0  0  0  0  0  0  0  0  0  0  0
   -2.2937   -3.5972   -0.5226 O   0  0  0  0  0  0  0  0  0  0  0  0
   -6.7831    0.8463    0.0165 N   0  0  0  0  0  0  0  0  0  0  0  0
    3.5324   -0.4666    0.1774 N   0  0  0  0  0  0  0  0  0  0  0  0
   -8.9824    2.6370    0.3576 N   0  0  0  0  0  0  0  0  0  0  0  0
    1.9513   -3.6449   -0.3953 N   0  0  0  0  0  0  0  0  0  0  0  0
    0.5975   -3.5558   -0.4448 N   0  0  0  0  0  0  0  0  0  0  0  0
   -0.9204   -1.7108   -0.2262 N   0  0  0  0  0  0  0  0  0  0  0  0
   -6.9552    1.9803   -0.8968 C   0  0  0  0  0  0  0  0  0  0  0  0
   -7.4204    0.9876    1.3318 C   0  0  0  0  0  0  0  0  0  0  0  0
    2.0597   -0.1802    0.1534 C   0  0  0  0  0  0  0  0  0  0  0  0
   -8.4292    2.3853   -0.9786 C   0  0  0  0  0  0  0  0  0  0  0  0
   -8.8792    1.4234    1.1775 C   0  0  0  0  0  0  0  0  0  0  0  0
    1.5270   -1.5223   -0.0829 C   0  0  0  0  0  0  0  0  0  0  0  0
    3.8739   -1.9137   -0.0343 C   0  0  0  0  0  0  0  0  0  0  0  0
    2.5222   -2.4439   -0.1811 C   0  0  0  0  0  0  0  0  0  0  0  0
    0.3510   -2.2465   -0.2512 C   0  0  0  0  0  0  0  0  0  0  0  0
   -5.6380    0.0476   -0.0770 C   0  0  0  0  0  0  0  0  0  0  0  0
    4.4505    0.5520    0.3816 C   0  0  0  0  0  0  0  0  0  0  0  0
  -10.3745    3.0748    0.2625 C   0  0  0  0  0  0  0  0  0  0  0  0
    5.8977    0.1303    0.3844 C   0  0  1  0  0  0  0  0  0  0  0  0
   -4.4362    0.6007   -0.5191 C   0  0  0  0  0  0  0  0  0  0  0  0
   -5.6980   -1.3014    0.2732 C   0  0  0  0  0  0  0  0  0  0  0  0
   -3.3543   -1.5441   -0.2611 C   0  0  0  0  0  0  0  0  0  0  0  0
   -2.1371   -2.3921   -0.3588 C   0  0  0  0  0  0  0  0  0  0  0  0
   -3.2944   -0.1951   -0.6111 C   0  0  0  0  0  0  0  0  0  0  0  0
   -4.5561   -2.0971    0.1811 C   0  0  0  0  0  0  0  0  0  0  0  0
    6.7869    1.2564   -0.0612 C   0  0  0  0  0  0  0  0  0  0  0  0
    7.0945    1.4092   -1.4131 C   0  0  0  0  0  0  0  0  0  0  0  0
    7.3053    2.1487    0.8771 C   0  0  0  0  0  0  0  0  0  0  0  0
    7.3549   -1.1239    1.7359 C   0  0  0  0  0  0  0  0  0  0  0  0
    7.9204    2.4544   -1.8267 C   0  0  0  0  0  0  0  0  0  0  0  0
    8.1312    3.1940    0.4636 C   0  0  0  0  0  0  0  0  0  0  0  0
    8.4387    3.3468   -0.8884 C   0  0  0  0  0  0  0  0  0  0  0  0
   -6.6188    1.7193   -1.9080 H   0  0  0  0  0  0  0  0  0  0  0  0
   -6.3590    2.8339   -0.5492 H   0  0  0  0  0  0  0  0  0  0  0  0
   -7.4041    0.0476    1.8953 H   0  0  0  0  0  0  0  0  0  0  0  0
   -6.8657    1.7279    1.9229 H   0  0  0  0  0  0  0  0  0  0  0  0
    1.7684    0.2445    1.1177 H   0  0  0  0  0  0  0  0  0  0  0  0
    1.8517    0.5239   -0.6566 H   0  0  0  0  0  0  0  0  0  0  0  0
   -8.9980    1.5976   -1.4913 H   0  0  0  0  0  0  0  0  0  0  0  0
   -8.5021    3.2916   -1.5921 H   0  0  0  0  0  0  0  0  0  0  0  0
   -9.2883    1.6111    2.1777 H   0  0  0  0  0  0  0  0  0  0  0  0
   -9.4620    0.6047    0.7342 H   0  0  0  0  0  0  0  0  0  0  0  0
    4.4043   -2.2924    0.8420 H   0  0  0  0  0  0  0  0  0  0  0  0
    4.4680   -2.0187   -0.9451 H   0  0  0  0  0  0  0  0  0  0  0  0
    2.3839   -4.5527   -0.5168 H   0  0  0  0  0  0  0  0  0  0  0  0
  -10.7759    3.2975    1.2573 H   0  0  0  0  0  0  0  0  0  0  0  0
  -11.0162    2.3209   -0.2076 H   0  0  0  0  0  0  0  0  0  0  0  0
  -10.4471    4.0005   -0.3193 H   0  0  0  0  0  0  0  0  0  0  0  0
    6.0486   -0.7072   -0.3048 H   0  0  0  0  0  0  0  0  0  0  0  0
   -0.9324   -0.7124   -0.0394 H   0  0  0  0  0  0  0  0  0  0  0  0
   -4.3516    1.6482   -0.7937 H   0  0  0  0  0  0  0  0  0  0  0  0
   -6.6279   -1.7541    0.6076 H   0  0  0  0  0  0  0  0  0  0  0  0
   -2.3905    0.2702   -0.9923 H   0  0  0  0  0  0  0  0  0  0  0  0
   -4.6239   -3.1451    0.4608 H   0  0  0  0  0  0  0  0  0  0  0  0
    6.6953    0.7220   -2.1544 H   0  0  0  0  0  0  0  0  0  0  0  0
    7.0718    2.0606    1.9346 H   0  0  0  0  0  0  0  0  0  0  0  0
    7.1567   -2.0497    1.1865 H   0  0  0  0  0  0  0  0  0  0  0  0
    8.2431   -0.6297    1.3318 H   0  0  0  0  0  0  0  0  0  0  0  0
    7.5526   -1.3824    2.7799 H   0  0  0  0  0  0  0  0  0  0  0  0
    8.1593    2.5739   -2.8795 H   0  0  0  0  0  0  0  0  0  0  0  0
    8.5325    3.8909    1.1936 H   0  0  0  0  0  0  0  0  0  0  0  0
    9.0810    4.1612   -1.2105 H   0  0  0  0  0  0  0  0  0  0  0  0
  1 22  1  0  0  0  0
  1 32  1  0  0  0  0
  2 20  2  0  0  0  0
  3 26  2  0  0  0  0
  4 10  1  0  0  0  0
  4 11  1  0  0  0  0
  4 19  1  0  0  0  0
  5 12  1  0  0  0  0
  5 16  1  0  0  0  0
  5 20  1  0  0  0  0
  6 13  1  0  0  0  0
  6 14  1  0  0  0  0
  6 21  1  0  0  0  0
  7  8  1  0  0  0  0
  7 17  1  0  0  0  0
  7 48  1  0  0  0  0
  8 18  2  0  0  0  0
  9 18  1  0  0  0  0
  9 26  1  0  0  0  0
  9 53  1  0  0  0  0
 10 13  1  0  0  0  0
 10 36  1  0  0  0  0
 10 37  1  0  0  0  0
 11 14  1  0  0  0  0
 11 38  1  0  0  0  0
 11 39  1  0  0  0  0
 12 15  1  0  0  0  0
 12 40  1  0  0  0  0
 12 41  1  0  0  0  0
 13 42  1  0  0  0  0
 13 43  1  0  0  0  0
 14 44  1  0  0  0  0
 14 45  1  0  0  0  0
 15 17  2  0  0  0  0
 15 18  1  0  0  0  0
 16 17  1  0  0  0  0
 16 46  1  0  0  0  0
 16 47  1  0  0  0  0
 19 23  2  0  0  0  0
 19 24  1  0  0  0  0
 20 22  1  0  0  0  0
 21 49  1  0  0  0  0
 21 50  1  0  0  0  0
 21 51  1  0  0  0  0
 22 29  1  0  0  0  0
 22 52  1  0  0  0  0
 23 27  1  0  0  0  0
 23 54  1  0  0  0  0
 24 28  2  0  0  0  0
 24 55  1  0  0  0  0
 25 26  1  0  0  0  0
 25 27  2  0  0  0  0
 25 28  1  0  0  0  0
 27 56  1  0  0  0  0
 28 57  1  0  0  0  0
 29 30  2  0  0  0  0
 29 31  1  0  0  0  0
 30 33  1  0  0  0  0
 30 58  1  0  0  0  0
 31 34  2  0  0  0  0
 31 59  1  0  0  0  0
 32 60  1  0  0  0  0
 32 61  1  0  0  0  0
 32 62  1  0  0  0  0
 33 35  2  0  0  0  0
 33 63  1  0  0  0  0
 34 35  1  0  0  0  0
 34 64  1  0  0  0  0
 35 65  1  0  0  0  0
M  END
> <PUBCHEM_COMPOUND_CID>
11442891

> <PUBCHEM_CONFORMER_RMSD>
1

> <PUBCHEM_CONFORMER_DIVERSEORDER>
1
14
18
8
2
12
21
10
4
7
23
17
19
3
20
13
11
22
16
26
24
6
5
9
25
15

> <PUBCHEM_MMFF94_PARTIAL_CHARGES>
46
1 -0.56
10 0.37
11 0.37
12 0.48
13 0.27
14 0.27
15 -0.18
16 0.48
17 -0.33
18 0.35
19 0.1
2 -0.57
20 0.57
21 0.27
22 0.48
23 -0.15
24 -0.15
25 0.09
26 0.54
27 -0.15
28 -0.15
29 -0.14
3 -0.57
30 -0.15
31 -0.15
32 0.28
33 -0.15
34 -0.15
35 -0.15
4 -0.84
48 0.27
5 -0.66
53 0.37
54 0.15
55 0.15
56 0.15
57 0.15
58 0.15
59 0.15
6 -0.81
63 0.15
64 0.15
65 0.15
7 0.3
8 -0.71
9 -0.49

> <PUBCHEM_EFFECTIVE_ROTOR_COUNT>
9.8

> <PUBCHEM_PHARMACOPHORE_FEATURES>
12
1 1 acceptor
1 2 acceptor
1 3 acceptor
1 4 cation
1 6 cation
1 7 donor
1 9 donor
5 5 12 15 16 17 rings
5 7 8 15 17 18 rings
6 19 23 24 25 27 28 rings
6 29 30 31 33 34 35 rings
6 4 6 10 11 13 14 rings

> <PUBCHEM_HEAVY_ATOM_COUNT>
35

> <PUBCHEM_ATOM_DEF_STEREO_COUNT>
1

> <PUBCHEM_ATOM_UDEF_STEREO_COUNT>
0

> <PUBCHEM_BOND_DEF_STEREO_COUNT>
0

> <PUBCHEM_BOND_UDEF_STEREO_COUNT>
0

> <PUBCHEM_ISOTOPIC_ATOM_COUNT>
0

> <PUBCHEM_COMPONENT_COUNT>
1

> <PUBCHEM_CACTVS_TAUTO_COUNT>
8

> <PUBCHEM_CONFORMER_ID>
00AE9ACB00000001

> <PUBCHEM_MMFF94_ENERGY>
121.8629

> <PUBCHEM_FEATURE_SELFOVERLAP>
61.151

> <PUBCHEM_SHAPE_FINGERPRINT>
10 15 18113620075740527611
10168742 298 12679166229917332129
10280341 67 18200863076367625728
10533779 1 18412816993405244489
10930396 42 17022620876247058893
11409948 8 18261967297974798497
11421887 21 18131078095027807241
11421887 45 18269541875052620784
11578821 258 18411139122109461269
11607047 141 17750789944394757362
11828042 206 18339370782130777948
1200032 147 18407762538541659210
12098696 120 18411428305728801604
12133447 93 18341625849174235412
12522641 68 18060138764977860567
12539765 74 18272375265330583934
13008946 113 18408040702520902098
13248334 5 18124596383841092991
13627175 4 10879995770203018365
13944108 23 18411983585994193268
14359421 15 11815901133050519893
14394314 77 18335139846850780348
14400156 260 18334011688703295296
14617042 71 18340772559790553289
14747282 540 18409168810093943004
14931854 50 17561368387125759810
14965480 1 12974426814476341016
15152005 77 11241962699017761497
15198563 99 15267075726118841195
15347591 1 18411981368942795031
15510800 12 9151173134451315797
1577012 14 18409444825865805230
15840311 113 18333452019767271422
16126227 98 18411420626833528999
16989713 51 17487609965319193367
16990366 60 9223235126841970110
16991971 28 9655581803165432428
16994733 274 18261951942274523690
19301676 85 10015565221820351629
19302320 297 18186806897816266541
19303781 99 8646487375954026307
19304671 126 18131078099675676454
19315958 150 18410295766451053999
20105231 36 11311761897010870861
2026 5 8862948268964911721
20609170 45 18340782443327369534
20721686 146 18342461473864051492
21585482 111 18411139142792506773
21772523 7 15840139134824948712
22149856 69 18186800280073438340
23516275 100 18337107848838831389
23522609 53 17533501381975943286
23523787 8 15913608384715402934
23523788 1 13262661609742016026
23569914 152 17916325866112618950
23576562 1 16271062952696231689
24771293 8 18334294288634013359
25242607 90 10953742226849149757
2835820 83 9007057968109467081
2851757 41 8935000391146147209
3711267 37 18338808895609409569
3918712 181 18342455967663444392
393628 194 18336263556587682525
4073 2 18260269676389095723
4169191 19 18341330012312091829
4403749 210 18409172121898713123
54583773 228 18342171194810889239
5470011 282 12679170643850404683
5718773 13 9079118855795980286
5776283 40 18272087223343466561
6201320 221 13613141893294616356
6289498 60 18334854983403225593
9962374 69 11386663939733521937
9980921 7 18260823818418744661

> <PUBCHEM_SHAPE_MULTIPOLES>
672.79
35.22
4.57
1.19
26.13
0.73
0.1
-46.51
3.56
-0.72
-0.88
-1.42
-0.49
-1.93

> <PUBCHEM_SHAPE_SELFOVERLAP>
1460.444

> <PUBCHEM_SHAPE_VOLUME>
367.1

> <PUBCHEM_COORDINATE_TYPE>
2
5
10

$$$$
