71720141
  -OEChem-10062121573D

 41 43  0     1  0  0  0  0  0999 V2000
   -0.1064   -2.0221    1.4136 O   0  0  0  0  0  0  0  0  0  0  0  0
    0.1074    1.7724   -0.1936 N   0  0  2  0  0  0  0  0  0  0  0  0
   -4.3964    0.7814    0.4610 N   0  0  0  0  0  0  0  0  0  0  0  0
    4.1354   -0.9923   -1.2887 N   0  0  0  0  0  0  0  0  0  0  0  0
   -1.2914   -0.2005    0.3417 C   0  0  2  0  0  0  0  0  0  0  0  0
   -1.1272    1.3223    0.4676 C   0  0  0  0  0  0  0  0  0  0  0  0
    1.2839    1.2054    0.4848 C   0  0  0  0  0  0  0  0  0  0  0  0
   -2.5422   -0.6616    1.0869 C   0  0  0  0  0  0  0  0  0  0  0  0
   -0.0519   -0.9362    0.8419 C   0  0  0  0  0  0  0  0  0  0  0  0
    1.2561   -0.2945    0.5176 C   0  0  0  0  0  0  0  0  0  0  0  0
    0.1800    3.2341   -0.2008 C   0  0  0  0  0  0  0  0  0  0  0  0
   -3.7891   -0.4132    0.2836 C   0  0  0  0  0  0  0  0  0  0  0  0
    2.3086   -1.0803    0.2582 C   0  0  0  0  0  0  0  0  0  0  0  0
   -4.2463   -1.3952   -0.5806 C   0  0  0  0  0  0  0  0  0  0  0  0
    3.6650   -0.6181   -0.0779 C   0  0  0  0  0  0  0  0  0  0  0  0
   -5.4010   -1.1339   -1.3097 C   0  0  0  0  0  0  0  0  0  0  0  0
   -5.5161    0.9995   -0.2646 C   0  0  0  0  0  0  0  0  0  0  0  0
    4.3773    0.1529    0.8267 C   0  0  0  0  0  0  0  0  0  0  0  0
   -6.0540    0.0838   -1.1546 C   0  0  0  0  0  0  0  0  0  0  0  0
    5.6546    0.5664    0.4650 C   0  0  0  0  0  0  0  0  0  0  0  0
    5.3806   -0.5717   -1.6054 C   0  0  0  0  0  0  0  0  0  0  0  0
    6.1731    0.2016   -0.7725 C   0  0  0  0  0  0  0  0  0  0  0  0
   -1.3744   -0.4667   -0.7223 H   0  0  0  0  0  0  0  0  0  0  0  0
   -1.9807    1.8130   -0.0142 H   0  0  0  0  0  0  0  0  0  0  0  0
   -1.1288    1.6258    1.5236 H   0  0  0  0  0  0  0  0  0  0  0  0
    2.1708    1.5672   -0.0460 H   0  0  0  0  0  0  0  0  0  0  0  0
    1.3510    1.5767    1.5166 H   0  0  0  0  0  0  0  0  0  0  0  0
   -2.6258   -0.1562    2.0579 H   0  0  0  0  0  0  0  0  0  0  0  0
   -2.5013   -1.7320    1.3247 H   0  0  0  0  0  0  0  0  0  0  0  0
   -0.6722    3.6586   -0.7431 H   0  0  0  0  0  0  0  0  0  0  0  0
    1.0819    3.5726   -0.7229 H   0  0  0  0  0  0  0  0  0  0  0  0
    0.1886    3.6542    0.8115 H   0  0  0  0  0  0  0  0  0  0  0  0
    2.1998   -2.1627    0.2464 H   0  0  0  0  0  0  0  0  0  0  0  0
   -3.7286   -2.3413   -0.6970 H   0  0  0  0  0  0  0  0  0  0  0  0
   -5.7910   -1.8776   -1.9982 H   0  0  0  0  0  0  0  0  0  0  0  0
   -5.9874    1.9641   -0.1074 H   0  0  0  0  0  0  0  0  0  0  0  0
    3.9733    0.4301    1.7950 H   0  0  0  0  0  0  0  0  0  0  0  0
   -6.9555    0.3091   -1.7128 H   0  0  0  0  0  0  0  0  0  0  0  0
    6.2456    1.1706    1.1467 H   0  0  0  0  0  0  0  0  0  0  0  0
    5.7387   -0.8829   -2.5812 H   0  0  0  0  0  0  0  0  0  0  0  0
    7.1665    0.5123   -1.0753 H   0  0  0  0  0  0  0  0  0  0  0  0
  1  9  2  0  0  0  0
  2  6  1  0  0  0  0
  2  7  1  0  0  0  0
  2 11  1  0  0  0  0
  3 12  1  0  0  0  0
  3 17  2  0  0  0  0
  4 15  1  0  0  0  0
  4 21  2  0  0  0  0
  5  6  1  0  0  0  0
  5  8  1  0  0  0  0
  5  9  1  0  0  0  0
  5 23  1  0  0  0  0
  6 24  1  0  0  0  0
  6 25  1  0  0  0  0
  7 10  1  0  0  0  0
  7 26  1  0  0  0  0
  7 27  1  0  0  0  0
  8 12  1  0  0  0  0
  8 28  1  0  0  0  0
  8 29  1  0  0  0  0
  9 10  1  0  0  0  0
 10 13  2  0  0  0  0
 11 30  1  0  0  0  0
 11 31  1  0  0  0  0
 11 32  1  0  0  0  0
 12 14  2  0  0  0  0
 13 15  1  0  0  0  0
 13 33  1  0  0  0  0
 14 16  1  0  0  0  0
 14 34  1  0  0  0  0
 15 18  2  0  0  0  0
 16 19  2  0  0  0  0
 16 35  1  0  0  0  0
 17 19  1  0  0  0  0
 17 36  1  0  0  0  0
 18 20  1  0  0  0  0
 18 37  1  0  0  0  0
 19 38  1  0  0  0  0
 20 22  2  0  0  0  0
 20 39  1  0  0  0  0
 21 22  1  0  0  0  0
 21 40  1  0  0  0  0
 22 41  1  0  0  0  0
M  END
> <PUBCHEM_COMPOUND_CID>
71720141

> <PUBCHEM_CONFORMER_RMSD>
0.6

> <PUBCHEM_CONFORMER_DIVERSEORDER>
1
78
91
97
66
116
55
89
24
34
44
42
121
108
15
36
98
16
96
88
8
102
105
51
60
72
119
112
122
101
14
9
59
70
56
22
26
74
95
7
54
114
120
117
106
48
100
93
5
94
71
4
57
49
47
30
111
90
32
109
37
85
63
39
46
110
43
113
31
19
11
38
45
65
28
76
12
33
64
79
115
61
3
82
21
17
84
29
86
23
73
62
69
104
40
80
20
118
77
58
6
103
99
75
27
107
2
25
68
13
81
92
53
52
10
35
50
67
87
83
41
18

> <PUBCHEM_MMFF94_PARTIAL_CHARGES>
31
1 -0.57
10 -0.12
11 0.27
12 0.17
13 -0.18
14 -0.15
15 0.34
16 -0.15
17 0.16
18 -0.15
19 -0.15
2 -0.81
20 -0.15
21 0.16
22 -0.15
3 -0.62
33 0.15
34 0.15
35 0.15
36 0.15
37 0.15
38 0.15
39 0.15
4 -0.62
40 0.15
41 0.15
5 0.06
6 0.27
7 0.41
8 0.14
9 0.49

> <PUBCHEM_EFFECTIVE_ROTOR_COUNT>
3.8

> <PUBCHEM_PHARMACOPHORE_FEATURES>
7
1 1 acceptor
1 2 cation
1 3 acceptor
1 4 acceptor
6 2 5 6 7 9 10 rings
6 3 12 14 16 17 19 rings
6 4 15 18 20 21 22 rings

> <PUBCHEM_HEAVY_ATOM_COUNT>
22

> <PUBCHEM_ATOM_DEF_STEREO_COUNT>
1

> <PUBCHEM_ATOM_UDEF_STEREO_COUNT>
0

> <PUBCHEM_BOND_DEF_STEREO_COUNT>
1

> <PUBCHEM_BOND_UDEF_STEREO_COUNT>
0

> <PUBCHEM_ISOTOPIC_ATOM_COUNT>
0

> <PUBCHEM_COMPONENT_COUNT>
1

> <PUBCHEM_CACTVS_TAUTO_COUNT>
5

> <PUBCHEM_CONFORMER_ID>
04465CCD00000001

> <PUBCHEM_MMFF94_ENERGY>
62.0777

> <PUBCHEM_FEATURE_SELFOVERLAP>
35.522

> <PUBCHEM_SHAPE_FINGERPRINT>
10906281 52 18262817201732325000
11796584 16 16415482640693737543
12011746 2 18410858767727726984
12236239 1 14548742798572293762
12516196 113 18131348617832066424
12633257 1 13038898980413233679
12670543 26 18335702710856849782
12788726 201 18188769440198692760
13167372 99 15068613864636570110
13288520 33 16988844982193961483
13533116 47 14979963549725550982
13540713 4 17899699256585941833
13914758 101 16515675599425944480
14347332 77 18195810661735220502
14528608 73 18342174475174113098
15048467 5 16877661262022310895
15183329 4 17967248702367870997
15295992 7 11098156468849385742
15348495 7 11963685429443834342
167882 2 18046631371719723932
17844677 252 15913331298989111058
17913733 40 10953736643497699517
18222031 100 18272931626687354920
18608769 82 17677059048884623795
18681886 176 18130211766449468635
18769570 83 15502371214452257357
200 152 17847059986971585747
20281389 69 14923943453211383703
20567600 75 16200435740974669421
21029758 11 18410013247154108616
21150785 3 18201717387853101447
21267235 1 18341050809467909371
21285901 2 18342742867030252124
21637258 2 16343699898560957838
21641784 216 17749398001017397276
22393880 68 18337095861478631639
23402539 116 18411417315081369386
23559900 14 17560788975079599163
24771293 8 18342452686361496200
25147074 1 18044372721532603890
2767999 5 17530681013283902070
2838139 119 15357693115030602903
2916195 48 12540700344160772135
3009799 131 18335135401569586845
34797466 226 17346596408527104809
34934 24 18334290968039315490
3759504 43 16805611403331662827
4340502 62 14996285799180412160
465052 167 13542463189541729526
7237137 82 18115020806141649013

> <PUBCHEM_SHAPE_MULTIPOLES>
431.94
15.18
1.95
1.23
0.29
1.41
-0.2
-2.04
-6.5
-0.52
-0.04
0.26
-0.41
0.14

> <PUBCHEM_SHAPE_SELFOVERLAP>
924.031

> <PUBCHEM_SHAPE_VOLUME>
236.4

> <PUBCHEM_COORDINATE_TYPE>
2
5
10

$$$$
