12284431
  -OEChem-10062121553D

 16 17  0     0  0  0  0  0  0999 V2000
    2.2105   -2.2022   -0.0005 Br  0  0  0  0  0  0  0  0  0  0  0  0
    2.9594    0.9711   -0.0001 O   0  0  0  0  0  0  0  0  0  0  0  0
   -0.4547    0.8507    0.0000 N   0  0  0  0  0  0  0  0  0  0  0  0
    0.6940    1.5847    0.0000 N   0  0  0  0  0  0  0  0  0  0  0  0
   -0.1298   -0.4975    0.0001 C   0  0  0  0  0  0  0  0  0  0  0  0
    1.1963   -0.6838    0.0005 C   0  0  0  0  0  0  0  0  0  0  0  0
    1.7697    0.7021    0.0003 C   0  0  0  0  0  0  0  0  0  0  0  0
   -1.7528    1.3000   -0.0003 C   0  0  0  0  0  0  0  0  0  0  0  0
   -1.2204   -1.4552    0.0002 C   0  0  0  0  0  0  0  0  0  0  0  0
   -2.7809    0.4311    0.0000 C   0  0  0  0  0  0  0  0  0  0  0  0
   -2.4913   -1.0009    0.0000 C   0  0  0  0  0  0  0  0  0  0  0  0
    0.6799    2.5962   -0.0005 H   0  0  0  0  0  0  0  0  0  0  0  0
   -1.8821    2.3749   -0.0005 H   0  0  0  0  0  0  0  0  0  0  0  0
   -1.0082   -2.5179    0.0003 H   0  0  0  0  0  0  0  0  0  0  0  0
   -3.8126    0.7602   -0.0002 H   0  0  0  0  0  0  0  0  0  0  0  0
   -3.3304   -1.6876    0.0000 H   0  0  0  0  0  0  0  0  0  0  0  0
  1  6  1  0  0  0  0
  2  7  2  0  0  0  0
  3  4  1  0  0  0  0
  3  5  1  0  0  0  0
  3  8  1  0  0  0  0
  4  7  1  0  0  0  0
  4 12  1  0  0  0  0
  5  6  2  0  0  0  0
  5  9  1  0  0  0  0
  6  7  1  0  0  0  0
  8 10  2  0  0  0  0
  8 13  1  0  0  0  0
  9 11  2  0  0  0  0
  9 14  1  0  0  0  0
 10 11  1  0  0  0  0
 10 15  1  0  0  0  0
 11 16  1  0  0  0  0
M  END
> <PUBCHEM_COMPOUND_CID>
12284431

> <PUBCHEM_CONFORMER_RMSD>
0.4

> <PUBCHEM_CONFORMER_DIVERSEORDER>
1

> <PUBCHEM_MMFF94_PARTIAL_CHARGES>
16
1 -0.11
10 -0.15
11 -0.15
12 0.37
13 0.15
14 0.15
15 0.15
16 0.15
2 -0.57
3 -0.22
4 -0.41
5 0.1
6 0.12
7 0.62
8 -0.05
9 -0.15

> <PUBCHEM_EFFECTIVE_ROTOR_COUNT>
0

> <PUBCHEM_PHARMACOPHORE_FEATURES>
5
1 1 hydrophobe
1 2 acceptor
1 4 donor
5 3 4 5 6 7 rings
6 3 5 8 9 10 11 rings

> <PUBCHEM_HEAVY_ATOM_COUNT>
11

> <PUBCHEM_ATOM_DEF_STEREO_COUNT>
0

> <PUBCHEM_ATOM_UDEF_STEREO_COUNT>
0

> <PUBCHEM_BOND_DEF_STEREO_COUNT>
0

> <PUBCHEM_BOND_UDEF_STEREO_COUNT>
0

> <PUBCHEM_ISOTOPIC_ATOM_COUNT>
0

> <PUBCHEM_COMPONENT_COUNT>
1

> <PUBCHEM_CACTVS_TAUTO_COUNT>
2

> <PUBCHEM_CONFORMER_ID>
00BB720F00000001

> <PUBCHEM_MMFF94_ENERGY>
32.5367

> <PUBCHEM_FEATURE_SELFOVERLAP>
25.477

> <PUBCHEM_SHAPE_FINGERPRINT>
12524768 44 18410576141314944959
12897270 3 18339079409865588125
12932764 1 17560795567448319947
13380535 21 18337687359362160291
13380535 76 18336823181983156490
14325111 11 18410575071862800417
16945 1 18338799034469070405
193761 8 18266741272932868068
19973954 147 18410576158557896715
20201158 50 18337105769440630347
20645477 70 18411412887461100703
21040471 1 18410573980930512257
21501502 16 18412262804999873447
2334 1 18410856533885875011
23402655 69 18341034252242454861
23463225 33 18334851719448957138
23552423 10 18334017176727169110
23559900 14 17764586513685423134
2748010 2 18337671910438558791
369184 2 18411417302275452363
5084963 1 18057033623585503971
528886 8 18339075003171094211
53812653 166 18271803566190591872
63268167 104 18411139108569412001
7364860 26 18343300336679509586

> <PUBCHEM_SHAPE_MULTIPOLES>
216.49
4.07
2.04
0.61
0.02
0.33
0
0.45
0
-0.88
0
-0.01
0.06
0

> <PUBCHEM_SHAPE_SELFOVERLAP>
456.643

> <PUBCHEM_SHAPE_VOLUME>
125.6

> <PUBCHEM_COORDINATE_TYPE>
2
5
10

$$$$
