2858816
  -OEChem-10062121553D

 38 40  0     0  0  0  0  0  0999 V2000
   -2.0052    3.0750   -1.0114 Br  0  0  0  0  0  0  0  0  0  0  0  0
   -5.0282   -1.6961    1.1610 O   0  0  0  0  0  0  0  0  0  0  0  0
   -6.3360    0.2700   -0.3043 O   0  0  0  0  0  0  0  0  0  0  0  0
    2.3430   -0.4866   -0.7837 N   0  0  0  0  0  0  0  0  0  0  0  0
    2.2132    0.6475    1.1235 N   0  0  0  0  0  0  0  0  0  0  0  0
   -0.7575   -1.1298   -2.2539 N   0  0  0  0  0  0  0  0  0  0  0  0
    3.6383   -0.3313   -0.3614 C   0  0  0  0  0  0  0  0  0  0  0  0
    3.5308    0.3797    0.8308 C   0  0  0  0  0  0  0  0  0  0  0  0
    1.5292    0.1144    0.1360 C   0  0  0  0  0  0  0  0  0  0  0  0
    4.8577   -0.7392   -0.9033 C   0  0  0  0  0  0  0  0  0  0  0  0
    6.0100   -0.3999   -0.1865 C   0  0  0  0  0  0  0  0  0  0  0  0
    4.6988    0.7122    1.5375 C   0  0  0  0  0  0  0  0  0  0  0  0
    0.1451    0.0733   -0.1038 C   0  0  0  0  0  0  0  0  0  0  0  0
    5.9341    0.3129    1.0123 C   0  0  0  0  0  0  0  0  0  0  0  0
   -2.2714    0.5741    0.4220 C   0  0  0  0  0  0  0  0  0  0  0  0
   -0.8309    0.6318    0.7096 C   0  0  0  0  0  0  0  0  0  0  0  0
    7.3460   -0.8077   -0.7151 C   0  0  0  0  0  0  0  0  0  0  0  0
   -2.9730   -0.5182    0.9172 C   0  0  0  0  0  0  0  0  0  0  0  0
   -2.9162    1.5613   -0.3115 C   0  0  0  0  0  0  0  0  0  0  0  0
   -4.3424   -0.6243    0.6745 C   0  0  0  0  0  0  0  0  0  0  0  0
   -4.9988    0.3625   -0.0612 C   0  0  0  0  0  0  0  0  0  0  0  0
   -4.2858    1.4553   -0.5542 C   0  0  0  0  0  0  0  0  0  0  0  0
   -0.3858   -0.5913   -1.2954 C   0  0  0  0  0  0  0  0  0  0  0  0
   -5.1151   -2.8455    0.3212 C   0  0  0  0  0  0  0  0  0  0  0  0
    2.0672   -0.9662   -1.6307 H   0  0  0  0  0  0  0  0  0  0  0  0
    4.9020   -1.2936   -1.8344 H   0  0  0  0  0  0  0  0  0  0  0  0
    4.6503    1.2653    2.4701 H   0  0  0  0  0  0  0  0  0  0  0  0
    6.8406    0.5667    1.5573 H   0  0  0  0  0  0  0  0  0  0  0  0
   -0.5517    1.1528    1.6222 H   0  0  0  0  0  0  0  0  0  0  0  0
    7.6545   -1.7558   -0.2637 H   0  0  0  0  0  0  0  0  0  0  0  0
    7.3233   -0.9303   -1.8034 H   0  0  0  0  0  0  0  0  0  0  0  0
    8.1038   -0.0482   -0.4945 H   0  0  0  0  0  0  0  0  0  0  0  0
   -2.4705   -1.2920    1.4936 H   0  0  0  0  0  0  0  0  0  0  0  0
   -4.8030    2.2216   -1.1273 H   0  0  0  0  0  0  0  0  0  0  0  0
   -6.6177    1.0398   -0.8277 H   0  0  0  0  0  0  0  0  0  0  0  0
   -5.6248   -2.6007   -0.6160 H   0  0  0  0  0  0  0  0  0  0  0  0
   -5.6950   -3.6100    0.8454 H   0  0  0  0  0  0  0  0  0  0  0  0
   -4.1172   -3.2444    0.1131 H   0  0  0  0  0  0  0  0  0  0  0  0
  1 19  1  0  0  0  0
  2 20  1  0  0  0  0
  2 24  1  0  0  0  0
  3 21  1  0  0  0  0
  3 35  1  0  0  0  0
  4  7  1  0  0  0  0
  4  9  1  0  0  0  0
  4 25  1  0  0  0  0
  5  8  1  0  0  0  0
  5  9  2  0  0  0  0
  6 23  3  0  0  0  0
  7  8  2  0  0  0  0
  7 10  1  0  0  0  0
  8 12  1  0  0  0  0
  9 13  1  0  0  0  0
 10 11  2  0  0  0  0
 10 26  1  0  0  0  0
 11 14  1  0  0  0  0
 11 17  1  0  0  0  0
 12 14  2  0  0  0  0
 12 27  1  0  0  0  0
 13 16  2  3  0  0  0
 13 23  1  0  0  0  0
 14 28  1  0  0  0  0
 15 16  1  0  0  0  0
 15 18  2  0  0  0  0
 15 19  1  0  0  0  0
 16 29  1  0  0  0  0
 17 30  1  0  0  0  0
 17 31  1  0  0  0  0
 17 32  1  0  0  0  0
 18 20  1  0  0  0  0
 18 33  1  0  0  0  0
 19 22  2  0  0  0  0
 20 21  2  0  0  0  0
 21 22  1  0  0  0  0
 22 34  1  0  0  0  0
 24 36  1  0  0  0  0
 24 37  1  0  0  0  0
 24 38  1  0  0  0  0
M  END
> <PUBCHEM_COMPOUND_CID>
2858816

> <PUBCHEM_CONFORMER_RMSD>
0.6

> <PUBCHEM_CONFORMER_DIVERSEORDER>
1
11
7
8
3
4
9
2
10
6
5

> <PUBCHEM_MMFF94_PARTIAL_CHARGES>
32
1 -0.11
10 -0.15
11 -0.14
12 -0.15
13 0.11
14 -0.15
15 0.03
16 -0.18
17 0.14
18 -0.15
19 0.11
2 -0.36
20 0.08
21 0.08
22 -0.15
23 0.49
24 0.28
25 0.27
26 0.15
27 0.15
28 0.15
29 0.15
3 -0.53
33 0.15
34 0.15
35 0.45
4 0.03
5 -0.57
6 -0.56
7 -0.15
8 0.23
9 0.14

> <PUBCHEM_EFFECTIVE_ROTOR_COUNT>
3

> <PUBCHEM_PHARMACOPHORE_FEATURES>
9
1 1 hydrophobe
1 2 acceptor
1 3 donor
1 4 donor
1 6 acceptor
3 4 5 9 cation
5 4 5 7 8 9 rings
6 15 18 19 20 21 22 rings
6 7 8 10 11 12 14 rings

> <PUBCHEM_HEAVY_ATOM_COUNT>
24

> <PUBCHEM_ATOM_DEF_STEREO_COUNT>
0

> <PUBCHEM_ATOM_UDEF_STEREO_COUNT>
0

> <PUBCHEM_BOND_DEF_STEREO_COUNT>
0

> <PUBCHEM_BOND_UDEF_STEREO_COUNT>
1

> <PUBCHEM_ISOTOPIC_ATOM_COUNT>
0

> <PUBCHEM_COMPONENT_COUNT>
1

> <PUBCHEM_CACTVS_TAUTO_COUNT>
6

> <PUBCHEM_CONFORMER_ID>
002B9F4000000001

> <PUBCHEM_MMFF94_ENERGY>
72.265

> <PUBCHEM_FEATURE_SELFOVERLAP>
45.778

> <PUBCHEM_SHAPE_FINGERPRINT>
10 15 18272076233043875656
11059845 2 17032154543618543896
11089746 13 16588031212506998956
11315181 36 17530972379617859021
11524674 6 17489587870461734311
12107183 9 16812619437249777760
12166972 35 16660370311122393237
12236239 1 16370725916046890961
12403259 415 17988351590501452360
12516196 113 14851609881659704484
12596602 18 17821729455487327788
12616971 3 15482669087575533520
13288520 33 18187087265281459145
13583140 156 18340759373364657018
13782708 43 18343303639615128238
1420 363 18202004326218051656
14849402 71 13901605477780857434
14955137 171 18272370901522276816
15183329 4 15213013873152317763
15419008 47 18342173358620572216
17349148 13 17095529499877489019
17844677 252 18408327679229243760
18222031 100 17386004005215879164
18681886 176 18040720303114476376
18927931 339 18260550035216770499
19489759 90 18186520986327645257
200 152 15140957348613818484
21033648 144 16342834643377317024
21033648 29 17845636076327358392
21033650 10 17534362054266474972
21267235 1 18113625612285792241
21623969 137 17418099823093234806
21641784 216 12540980617307107430
21792961 116 18059581244595258310
220451 1 17894911797858279896
22224240 67 17346601889739122855
2297311 6 18334861601694373737
2303208 19 18201727245267353710
23081809 10 16732980912665138240
23402539 116 18040713684495818747
23557571 272 18339085878593271021
23559900 14 18187363268074670121
23569943 247 14978578096143931550
29717793 49 16588024589757151258
335352 9 17060338523073175708
34797466 226 18334024890878777724
3545911 37 17632855326782689868
397830 11 18128248077104754298
4325135 7 15574715781779440638
5104073 3 17987805094440927634
59755656 215 18341896255914774046
67856867 119 17676496102171232212
7495541 125 18343023319842000624

> <PUBCHEM_SHAPE_MULTIPOLES>
473.17
16.74
2.02
1.36
13.47
0.46
-0.25
-4.91
1.01
-4.14
-0.35
0.77
-0.13
1.6

> <PUBCHEM_SHAPE_SELFOVERLAP>
1024.464

> <PUBCHEM_SHAPE_VOLUME>
265.6

> <PUBCHEM_COORDINATE_TYPE>
2
5
10

$$$$
