49831044
  -OEChem-10052120443D

 46 48  0     1  0  0  0  0  0999 V2000
    3.7237    3.5650   -1.1930 Cl  0  0  0  0  0  0  0  0  0  0  0  0
   -1.2978   -3.8819   -2.9563 F   0  0  0  0  0  0  0  0  0  0  0  0
   -3.8080    1.6963    0.1917 O   0  0  0  0  0  0  0  0  0  0  0  0
    2.3766   -1.4558    1.4069 N   0  0  0  0  0  0  0  0  0  0  0  0
    0.9082    2.6073   -0.5476 N   0  0  0  0  0  0  0  0  0  0  0  0
    1.1776   -3.0288   -0.4457 N   0  0  0  0  0  0  0  0  0  0  0  0
    1.6515    0.5553    0.4404 N   0  0  0  0  0  0  0  0  0  0  0  0
   -1.2035    3.5875   -0.9154 N   0  0  0  0  0  0  0  0  0  0  0  0
    3.9974    0.0189    0.5684 N   0  0  0  0  0  0  0  0  0  0  0  0
   -2.5228    3.3983   -0.7418 N   0  0  0  0  0  0  0  0  0  0  0  0
    1.0351   -1.8598    1.6908 C   0  0  1  0  0  0  0  0  0  0  0  0
    0.3743   -2.3979    0.4399 C   0  0  0  0  0  0  0  0  0  0  0  0
    1.0470   -2.8639    2.8414 C   0  0  0  0  0  0  0  0  0  0  0  0
   -3.8186    0.4246    0.8331 C   0  0  0  0  0  0  0  0  0  0  0  0
    2.6907   -0.2335    0.7741 C   0  0  0  0  0  0  0  0  0  0  0  0
   -0.4336    2.5641   -0.4460 C   0  0  0  0  0  0  0  0  0  0  0  0
   -0.9889   -2.2240    0.2634 C   0  0  0  0  0  0  0  0  0  0  0  0
    1.9875    1.7147   -0.1626 C   0  0  0  0  0  0  0  0  0  0  0  0
   -2.5816    2.2079   -0.1388 C   0  0  0  0  0  0  0  0  0  0  0  0
   -1.3100    1.6416    0.0710 C   0  0  0  0  0  0  0  0  0  0  0  0
   -5.0872   -0.3206    0.4467 C   0  0  0  0  0  0  0  0  0  0  0  0
   -3.7131    0.6217    2.3376 C   0  0  0  0  0  0  0  0  0  0  0  0
   -1.5649   -2.7301   -0.8967 C   0  0  0  0  0  0  0  0  0  0  0  0
    3.2879    2.0911   -0.4301 C   0  0  0  0  0  0  0  0  0  0  0  0
    0.5824   -3.5073   -1.5615 C   0  0  0  0  0  0  0  0  0  0  0  0
    4.2614    1.1947   -0.0385 C   0  0  0  0  0  0  0  0  0  0  0  0
   -0.7711   -3.3853   -1.8315 C   0  0  0  0  0  0  0  0  0  0  0  0
    0.4633   -0.9930    2.0496 H   0  0  0  0  0  0  0  0  0  0  0  0
    3.1545   -2.0731    1.6101 H   0  0  0  0  0  0  0  0  0  0  0  0
    0.0287   -3.1642    3.1118 H   0  0  0  0  0  0  0  0  0  0  0  0
    1.5227   -2.4356    3.7306 H   0  0  0  0  0  0  0  0  0  0  0  0
    1.5998   -3.7721    2.5737 H   0  0  0  0  0  0  0  0  0  0  0  0
   -3.0005   -0.1998    0.4744 H   0  0  0  0  0  0  0  0  0  0  0  0
   -1.5959   -1.7426    1.0195 H   0  0  0  0  0  0  0  0  0  0  0  0
    1.3016    3.4385   -0.9891 H   0  0  0  0  0  0  0  0  0  0  0  0
   -1.0445    0.7098    0.5438 H   0  0  0  0  0  0  0  0  0  0  0  0
   -5.1417   -0.4431   -0.6405 H   0  0  0  0  0  0  0  0  0  0  0  0
   -5.1269   -1.3102    0.9122 H   0  0  0  0  0  0  0  0  0  0  0  0
   -5.9779    0.2436    0.7442 H   0  0  0  0  0  0  0  0  0  0  0  0
   -2.7825    1.1304    2.6087 H   0  0  0  0  0  0  0  0  0  0  0  0
   -3.7443   -0.3370    2.8646 H   0  0  0  0  0  0  0  0  0  0  0  0
   -4.5323    1.2488    2.7067 H   0  0  0  0  0  0  0  0  0  0  0  0
   -0.8958    4.4413   -1.3636 H   0  0  0  0  0  0  0  0  0  0  0  0
   -2.6314   -2.6204   -1.0681 H   0  0  0  0  0  0  0  0  0  0  0  0
    1.2446   -4.0095   -2.2588 H   0  0  0  0  0  0  0  0  0  0  0  0
    5.3167    1.3917   -0.2005 H   0  0  0  0  0  0  0  0  0  0  0  0
  1 24  1  0  0  0  0
  2 27  1  0  0  0  0
  3 14  1  0  0  0  0
  3 19  1  0  0  0  0
  4 11  1  0  0  0  0
  4 15  1  0  0  0  0
  4 29  1  0  0  0  0
  5 16  1  0  0  0  0
  5 18  1  0  0  0  0
  5 35  1  0  0  0  0
  6 12  2  0  0  0  0
  6 25  1  0  0  0  0
  7 15  1  0  0  0  0
  7 18  2  0  0  0  0
  8 10  1  0  0  0  0
  8 16  1  0  0  0  0
  8 43  1  0  0  0  0
  9 15  2  0  0  0  0
  9 26  1  0  0  0  0
 10 19  2  0  0  0  0
 11 12  1  0  0  0  0
 11 13  1  0  0  0  0
 11 28  1  0  0  0  0
 12 17  1  0  0  0  0
 13 30  1  0  0  0  0
 13 31  1  0  0  0  0
 13 32  1  0  0  0  0
 14 21  1  0  0  0  0
 14 22  1  0  0  0  0
 14 33  1  0  0  0  0
 16 20  2  0  0  0  0
 17 23  2  0  0  0  0
 17 34  1  0  0  0  0
 18 24  1  0  0  0  0
 19 20  1  0  0  0  0
 20 36  1  0  0  0  0
 21 37  1  0  0  0  0
 21 38  1  0  0  0  0
 21 39  1  0  0  0  0
 22 40  1  0  0  0  0
 22 41  1  0  0  0  0
 22 42  1  0  0  0  0
 23 27  1  0  0  0  0
 23 44  1  0  0  0  0
 24 26  2  0  0  0  0
 25 27  2  0  0  0  0
 25 45  1  0  0  0  0
 26 46  1  0  0  0  0
M  END
> <PUBCHEM_COMPOUND_CID>
49831044

> <PUBCHEM_CONFORMER_RMSD>
1

> <PUBCHEM_CONFORMER_DIVERSEORDER>
1
104
68
76
106
110
72
139
159
142
155
32
98
25
118
105
86
28
165
7
135
42
108
61
152
54
107
160
67
166
125
122
22
145
154
19
129
120
99
9
96
112
115
80
77
111
147
39
162
20
90
84
15
126
94
137
30
93
49
149
131
97
27
52
124
136
158
48
59
138
127
100
109
150
82
38
57
41
71
146
116
16
85
102
91
45
113
103
65
3
140
10
132
128
37
75
133
62
101
18
153
8
31
148
64
51
23
163
34
134
60
117
164
43
123
114
69
119
143
87
46
151
58
66
5
161
53
36
50
17
83
74
11
89
33
56
92
40
47
81
55
21
63
130
88
44
26
2
78
73
141
29
13
144
4
121
14
6
157
70
35
95
24
156
12
79

> <PUBCHEM_MMFF94_PARTIAL_CHARGES>
32
1 -0.18
10 -0.71
11 0.51
12 0.17
14 0.28
15 0.72
16 -0.07
17 -0.15
18 0.41
19 0.35
2 -0.19
20 -0.15
23 -0.15
24 0.18
25 0.16
26 0.16
27 0.19
29 0.4
3 -0.34
34 0.15
35 0.4
36 0.15
4 -0.87
43 0.27
44 0.15
45 0.15
46 0.15
5 -0.58
6 -0.62
7 -0.62
8 0.3
9 -0.62

> <PUBCHEM_EFFECTIVE_ROTOR_COUNT>
7

> <PUBCHEM_PHARMACOPHORE_FEATURES>
9
1 4 donor
1 5 donor
1 6 acceptor
1 8 donor
3 14 21 22 hydrophobe
4 4 7 9 15 cation
5 8 10 16 19 20 rings
6 6 12 17 23 25 27 rings
6 7 9 15 18 24 26 rings

> <PUBCHEM_HEAVY_ATOM_COUNT>
27

> <PUBCHEM_ATOM_DEF_STEREO_COUNT>
0

> <PUBCHEM_ATOM_UDEF_STEREO_COUNT>
1

> <PUBCHEM_BOND_DEF_STEREO_COUNT>
0

> <PUBCHEM_BOND_UDEF_STEREO_COUNT>
0

> <PUBCHEM_ISOTOPIC_ATOM_COUNT>
0

> <PUBCHEM_COMPONENT_COUNT>
1

> <PUBCHEM_CACTVS_TAUTO_COUNT>
35

> <PUBCHEM_CONFORMER_ID>
02F85C8400000001

> <PUBCHEM_MMFF94_ENERGY>
71.7141

> <PUBCHEM_FEATURE_SELFOVERLAP>
45.71

> <PUBCHEM_SHAPE_FINGERPRINT>
10616163 171 18262516966576420353
10675989 125 16826128548895180231
10871710 139 18050010192188585606
11115154 58 16979553258589296255
11488393 25 17837507262451725994
11578080 2 15793689989891141823
12156800 1 16452693579699411455
12422481 6 17906422491302508386
12539773 59 16686591666390358603
12553582 1 17544193139680147004
14840074 17 18411143567357427289
15297060 5 17632025238396039171
20905425 154 18044660793368123241
21197605 99 18191321549100949515
21315764 371 16839045237118641341
23559900 14 17763742096717010661
25222932 49 17968107460353346499
3380486 77 16813151953296859592
35225 105 17558797733504031311
5081480 168 17195749770037895015
6287921 2 17914346679945442667
6438718 38 18053401064811063776
6823239 73 17763747589784665419
81228 2 17833256893890016336
9709674 26 17903351512017545489

> <PUBCHEM_SHAPE_MULTIPOLES>
509.51
7.19
6.01
2.02
0.67
0.94
-0.18
-5.66
-0.87
-1.67
2.59
-0.97
2.61
-2.56

> <PUBCHEM_SHAPE_SELFOVERLAP>
1076.676

> <PUBCHEM_SHAPE_VOLUME>
287.8

> <PUBCHEM_COORDINATE_TYPE>
2
5
10

$$$$
