53357328
  -OEChem-10052115143D

 59 64  0     0  0  0  0  0  0999 V2000
   -8.3244   -2.4358   -0.0197 O   0  0  0  0  0  0  0  0  0  0  0  0
    2.5971    2.8567   -0.0011 O   0  0  0  0  0  0  0  0  0  0  0  0
   -6.1701   -0.2982    0.0064 N   0  0  0  0  0  0  0  0  0  0  0  0
    3.3261   -1.6452    0.0043 N   0  0  0  0  0  0  0  0  0  0  0  0
    9.3348   -1.6242   -0.0048 N   0  0  0  0  0  0  0  0  0  0  0  0
   -3.6841    1.2475   -0.0004 C   0  0  0  0  0  0  0  0  0  0  0  0
   -7.6387   -0.4147    0.0084 C   0  0  0  0  0  0  0  0  0  0  0  0
   -4.2177    0.5402   -1.2565 C   0  0  0  0  0  0  0  0  0  0  0  0
   -4.2153    0.5470    1.2607 C   0  0  0  0  0  0  0  0  0  0  0  0
   -5.7422    0.4078   -1.2088 C   0  0  0  0  0  0  0  0  0  0  0  0
   -5.7398    0.4149    1.2165 C   0  0  0  0  0  0  0  0  0  0  0  0
   -2.1717    1.3593   -0.0006 C   0  0  0  0  0  0  0  0  0  0  0  0
    0.8483   -1.0326    0.0052 C   0  0  0  0  0  0  0  0  0  0  0  0
   -8.0472   -1.4464   -1.0369 C   0  0  0  0  0  0  0  0  0  0  0  0
   -8.0422   -1.4769    1.0249 C   0  0  0  0  0  0  0  0  0  0  0  0
    0.0206    0.2704    0.0023 C   0  0  0  0  0  0  0  0  0  0  0  0
   -1.3876    0.2043    0.0023 C   0  0  0  0  0  0  0  0  0  0  0  0
    2.3210   -0.7135    0.0035 C   0  0  0  0  0  0  0  0  0  0  0  0
    0.6180    1.5542   -0.0003 C   0  0  0  0  0  0  0  0  0  0  0  0
    2.9005    0.5350    0.0009 C   0  0  0  0  0  0  0  0  0  0  0  0
   -1.5675    2.6104   -0.0033 C   0  0  0  0  0  0  0  0  0  0  0  0
    0.5170   -1.8534    1.2711 C   0  0  0  0  0  0  0  0  0  0  0  0
    0.5157   -1.8600   -1.2563 C   0  0  0  0  0  0  0  0  0  0  0  0
    2.1001    1.7375   -0.0001 C   0  0  0  0  0  0  0  0  0  0  0  0
   -0.1781    2.7108   -0.0031 C   0  0  0  0  0  0  0  0  0  0  0  0
    4.3159    0.3572   -0.0005 C   0  0  0  0  0  0  0  0  0  0  0  0
    4.5522   -1.0202    0.0015 C   0  0  0  0  0  0  0  0  0  0  0  0
    5.4255    1.2284   -0.0040 C   0  0  0  0  0  0  0  0  0  0  0  0
    5.8400   -1.5683    0.0006 C   0  0  0  0  0  0  0  0  0  0  0  0
    6.7193    0.6943   -0.0052 C   0  0  0  0  0  0  0  0  0  0  0  0
    6.9213   -0.6835   -0.0031 C   0  0  0  0  0  0  0  0  0  0  0  0
    8.2534   -1.2027   -0.0040 C   0  0  0  0  0  0  0  0  0  0  0  0
   -4.1011    2.2652   -0.0028 H   0  0  0  0  0  0  0  0  0  0  0  0
   -8.2166    0.5141    0.0222 H   0  0  0  0  0  0  0  0  0  0  0  0
   -3.9286    1.1025   -2.1533 H   0  0  0  0  0  0  0  0  0  0  0  0
   -3.7785   -0.4602   -1.3612 H   0  0  0  0  0  0  0  0  0  0  0  0
   -3.7763   -0.4530    1.3699 H   0  0  0  0  0  0  0  0  0  0  0  0
   -3.9245    1.1139    2.1540 H   0  0  0  0  0  0  0  0  0  0  0  0
   -6.0490   -0.1232   -2.1158 H   0  0  0  0  0  0  0  0  0  0  0  0
   -6.1968    1.4066   -1.2586 H   0  0  0  0  0  0  0  0  0  0  0  0
   -6.1944    1.4138    1.2624 H   0  0  0  0  0  0  0  0  0  0  0  0
   -6.0483   -0.1144    2.1244 H   0  0  0  0  0  0  0  0  0  0  0  0
   -7.3020   -1.8263   -1.7412 H   0  0  0  0  0  0  0  0  0  0  0  0
   -8.9581   -1.1955   -1.5908 H   0  0  0  0  0  0  0  0  0  0  0  0
   -8.9499   -1.2429    1.5912 H   0  0  0  0  0  0  0  0  0  0  0  0
   -7.2898   -1.8717    1.7136 H   0  0  0  0  0  0  0  0  0  0  0  0
   -1.8743   -0.7679    0.0044 H   0  0  0  0  0  0  0  0  0  0  0  0
   -2.1630    3.5192   -0.0056 H   0  0  0  0  0  0  0  0  0  0  0  0
    0.7309   -1.2815    2.1826 H   0  0  0  0  0  0  0  0  0  0  0  0
   -0.5375   -2.1480    1.3087 H   0  0  0  0  0  0  0  0  0  0  0  0
    1.1060   -2.7771    1.3189 H   0  0  0  0  0  0  0  0  0  0  0  0
   -0.5388   -2.1550   -1.2913 H   0  0  0  0  0  0  0  0  0  0  0  0
    0.7285   -1.2926   -2.1710 H   0  0  0  0  0  0  0  0  0  0  0  0
    1.1047   -2.7838   -1.3000 H   0  0  0  0  0  0  0  0  0  0  0  0
    0.2670    3.7026   -0.0052 H   0  0  0  0  0  0  0  0  0  0  0  0
    3.1912   -2.6469    0.0062 H   0  0  0  0  0  0  0  0  0  0  0  0
    5.2894    2.3060   -0.0058 H   0  0  0  0  0  0  0  0  0  0  0  0
    5.9837   -2.6449    0.0023 H   0  0  0  0  0  0  0  0  0  0  0  0
    7.5655    1.3784   -0.0079 H   0  0  0  0  0  0  0  0  0  0  0  0
  1 14  1  0  0  0  0
  1 15  1  0  0  0  0
  2 24  2  0  0  0  0
  3  7  1  0  0  0  0
  3 10  1  0  0  0  0
  3 11  1  0  0  0  0
  4 18  1  0  0  0  0
  4 27  1  0  0  0  0
  4 56  1  0  0  0  0
  5 32  3  0  0  0  0
  6  8  1  0  0  0  0
  6  9  1  0  0  0  0
  6 12  1  0  0  0  0
  6 33  1  0  0  0  0
  7 14  1  0  0  0  0
  7 15  1  0  0  0  0
  7 34  1  0  0  0  0
  8 10  1  0  0  0  0
  8 35  1  0  0  0  0
  8 36  1  0  0  0  0
  9 11  1  0  0  0  0
  9 37  1  0  0  0  0
  9 38  1  0  0  0  0
 10 39  1  0  0  0  0
 10 40  1  0  0  0  0
 11 41  1  0  0  0  0
 11 42  1  0  0  0  0
 12 17  2  0  0  0  0
 12 21  1  0  0  0  0
 13 16  1  0  0  0  0
 13 18  1  0  0  0  0
 13 22  1  0  0  0  0
 13 23  1  0  0  0  0
 14 43  1  0  0  0  0
 14 44  1  0  0  0  0
 15 45  1  0  0  0  0
 15 46  1  0  0  0  0
 16 17  1  0  0  0  0
 16 19  2  0  0  0  0
 17 47  1  0  0  0  0
 18 20  2  0  0  0  0
 19 24  1  0  0  0  0
 19 25  1  0  0  0  0
 20 24  1  0  0  0  0
 20 26  1  0  0  0  0
 21 25  2  0  0  0  0
 21 48  1  0  0  0  0
 22 49  1  0  0  0  0
 22 50  1  0  0  0  0
 22 51  1  0  0  0  0
 23 52  1  0  0  0  0
 23 53  1  0  0  0  0
 23 54  1  0  0  0  0
 25 55  1  0  0  0  0
 26 27  2  0  0  0  0
 26 28  1  0  0  0  0
 27 29  1  0  0  0  0
 28 30  2  0  0  0  0
 28 57  1  0  0  0  0
 29 31  2  0  0  0  0
 29 58  1  0  0  0  0
 30 31  1  0  0  0  0
 30 59  1  0  0  0  0
 31 32  1  0  0  0  0
M  END
> <PUBCHEM_COMPOUND_CID>
53357328

> <PUBCHEM_CONFORMER_RMSD>
0.8

> <PUBCHEM_CONFORMER_DIVERSEORDER>
1
4
12
11
9
10
3
7
2
6
5
8

> <PUBCHEM_MMFF94_PARTIAL_CHARGES>
34
1 -0.52
10 0.27
11 0.27
12 -0.14
13 0.32
14 0.26
15 0.26
16 -0.14
17 -0.15
18 -0.33
19 0.09
2 -0.57
20 -0.09
21 -0.15
24 0.57
25 -0.15
27 -0.15
28 -0.15
29 -0.15
3 -0.75
30 -0.15
31 0.07
32 0.48
4 0.03
47 0.15
48 0.15
5 -0.56
55 0.15
56 0.27
57 0.15
58 0.15
59 0.15
6 0.14
7 0.21

> <PUBCHEM_EFFECTIVE_ROTOR_COUNT>
4.2

> <PUBCHEM_PHARMACOPHORE_FEATURES>
13
1 1 acceptor
1 2 acceptor
1 3 cation
1 4 cation
1 4 donor
1 5 acceptor
3 13 22 23 hydrophobe
4 1 7 14 15 rings
5 4 18 20 26 27 rings
6 12 16 17 19 21 25 rings
6 13 16 18 19 20 24 rings
6 26 27 28 29 30 31 rings
6 3 6 8 9 10 11 rings

> <PUBCHEM_HEAVY_ATOM_COUNT>
32

> <PUBCHEM_ATOM_DEF_STEREO_COUNT>
0

> <PUBCHEM_ATOM_UDEF_STEREO_COUNT>
0

> <PUBCHEM_BOND_DEF_STEREO_COUNT>
0

> <PUBCHEM_BOND_UDEF_STEREO_COUNT>
0

> <PUBCHEM_ISOTOPIC_ATOM_COUNT>
0

> <PUBCHEM_COMPONENT_COUNT>
1

> <PUBCHEM_CACTVS_TAUTO_COUNT>
14

> <PUBCHEM_CONFORMER_ID>
032E2B1000000001

> <PUBCHEM_MMFF94_ENERGY>
79.0306

> <PUBCHEM_FEATURE_SELFOVERLAP>
66.164

> <PUBCHEM_SHAPE_FINGERPRINT>
10076449 9 18272936003860500600
10299344 5 18059857277051819687
11135609 99 18339081596452796167
11135926 11 18272643524803285343
11315181 36 13623536744989818621
11421498 54 17274828995665387611
11963148 33 18409721838245836711
12166972 35 17967817158506659669
12236239 1 17917714591414488401
13685833 64 18410293618798802137
13811026 1 18410011022318409198
14202775 3 18340772534316694422
14849402 71 17631729499136827792
14856354 85 16415474965513482349
150020 25 17968087634609571709
15142383 8 11384115245662399286
15198563 99 16805316648315950189
15297060 5 16630520747992940671
15461852 350 14201402698991811571
15840311 113 18260551156530607724
15849732 13 17603871096457402910
18608769 82 18410290332668798778
18681886 176 18342166769739046816
20028762 73 18343585131476497415
2026 5 18261672588632556930
21033650 10 16443338729725329445
21049683 271 18410013264819969388
21130935 74 18127408944160347850
21197605 99 18342177773946496830
21267235 1 18411982459620784165
21792961 116 17749108863691831570
21792965 184 18058470749613318649
22149856 69 17988652843501380779
23522609 53 18125191335542894384
23569917 315 18340211787407091886
23569943 247 17767700356079250182
23576562 1 14707792716969674718
2747138 104 18413669119184910185
3178227 256 18343303682152857203
335352 9 18335707148549577206
3383291 50 18409446969339641394
3633792 109 11097848571539844284
4461854 278 17846222184971618215
44880568 143 17095238099485033757
4516262 110 16806751632462208644
484989 97 18114751546162405547
54039377 194 18411981364694124999
57527295 17 17604137122664012529
59682541 35 18272929444965171248
999808 66 18261397776262783019

> <PUBCHEM_SHAPE_MULTIPOLES>
631.86
25.15
2.52
0.98
7.65
0.74
0
-16.3
0.07
0.04
0
1.49
-0.21
-0.01

> <PUBCHEM_SHAPE_SELFOVERLAP>
1409.907

> <PUBCHEM_SHAPE_VOLUME>
334.2

> <PUBCHEM_COORDINATE_TYPE>
2
5
10

$$$$
