9889351
  -OEChem-10062122033D

 59 64  0     0  0  0  0  0  0999 V2000
   -0.5199    4.1720   -0.4295 O   0  0  0  0  0  0  0  0  0  0  0  0
   -4.4339    2.0563   -1.5066 O   0  0  0  0  0  0  0  0  0  0  0  0
    2.1714    0.4316   -0.2373 N   0  0  0  0  0  0  0  0  0  0  0  0
    6.1162   -1.2071   -0.6190 N   0  0  0  0  0  0  0  0  0  0  0  0
   -2.6481    3.4633   -1.0322 N   0  0  0  0  0  0  0  0  0  0  0  0
   -2.8107   -2.2447   -1.6473 N   0  0  0  0  0  0  0  0  0  0  0  0
    3.4304   -0.0622   -0.8048 C   0  0  0  0  0  0  0  0  0  0  0  0
    3.6668   -1.5521   -0.5169 C   0  0  0  0  0  0  0  0  0  0  0  0
    4.6451    0.7678   -0.3644 C   0  0  0  0  0  0  0  0  0  0  0  0
    4.9965   -2.0214   -1.1124 C   0  0  0  0  0  0  0  0  0  0  0  0
    5.9376    0.2099   -0.9654 C   0  0  0  0  0  0  0  0  0  0  0  0
    1.8604    0.4751    1.1030 C   0  0  0  0  0  0  0  0  0  0  0  0
    1.1303    0.9197   -0.9801 C   0  0  0  0  0  0  0  0  0  0  0  0
    0.1270    1.2866   -0.1129 C   0  0  0  0  0  0  0  0  0  0  0  0
    0.5752    1.0108    1.2092 C   0  0  0  0  0  0  0  0  0  0  0  0
    7.3839   -1.7068   -1.1508 C   0  0  0  0  0  0  0  0  0  0  0  0
   -1.1264    1.8425   -0.5186 C   0  0  0  0  0  0  0  0  0  0  0  0
    2.6107    0.0855    2.2181 C   0  0  0  0  0  0  0  0  0  0  0  0
   -2.2802    1.2211   -0.8242 C   0  0  0  0  0  0  0  0  0  0  0  0
    0.0089    1.1660    2.4900 C   0  0  0  0  0  0  0  0  0  0  0  0
   -2.5779   -0.1770   -0.8655 C   0  0  0  0  0  0  0  0  0  0  0  0
   -1.3501    3.3053   -0.6459 C   0  0  0  0  0  0  0  0  0  0  0  0
    2.0283    0.2485    3.4783 C   0  0  0  0  0  0  0  0  0  0  0  0
    0.7476    0.7801    3.6146 C   0  0  0  0  0  0  0  0  0  0  0  0
   -3.2817    2.2635   -1.1654 C   0  0  0  0  0  0  0  0  0  0  0  0
   -3.0644   -1.0030    0.1887 C   0  0  0  0  0  0  0  0  0  0  0  0
   -2.4328   -0.9718   -1.9814 C   0  0  0  0  0  0  0  0  0  0  0  0
   -3.2012   -2.2931   -0.3281 C   0  0  0  0  0  0  0  0  0  0  0  0
   -3.4017   -0.7734    1.5373 C   0  0  0  0  0  0  0  0  0  0  0  0
   -3.6603   -3.3693    0.4397 C   0  0  0  0  0  0  0  0  0  0  0  0
   -2.7951   -3.3658   -2.5620 C   0  0  0  0  0  0  0  0  0  0  0  0
   -3.8627   -1.8403    2.3171 C   0  0  0  0  0  0  0  0  0  0  0  0
   -3.9892   -3.1176    1.7746 C   0  0  0  0  0  0  0  0  0  0  0  0
    3.3297    0.0518   -1.8937 H   0  0  0  0  0  0  0  0  0  0  0  0
    2.8491   -2.1442   -0.9470 H   0  0  0  0  0  0  0  0  0  0  0  0
    3.6686   -1.7738    0.5538 H   0  0  0  0  0  0  0  0  0  0  0  0
    4.7542    0.8008    0.7230 H   0  0  0  0  0  0  0  0  0  0  0  0
    4.5162    1.8087   -0.6873 H   0  0  0  0  0  0  0  0  0  0  0  0
    5.1458   -3.0703   -0.8283 H   0  0  0  0  0  0  0  0  0  0  0  0
    4.9415   -1.9870   -2.2086 H   0  0  0  0  0  0  0  0  0  0  0  0
    5.9262    0.3475   -2.0548 H   0  0  0  0  0  0  0  0  0  0  0  0
    6.7769    0.7973   -0.5734 H   0  0  0  0  0  0  0  0  0  0  0  0
    1.1867    0.9662   -2.0601 H   0  0  0  0  0  0  0  0  0  0  0  0
    7.4248   -1.6520   -2.2448 H   0  0  0  0  0  0  0  0  0  0  0  0
    7.5430   -2.7488   -0.8513 H   0  0  0  0  0  0  0  0  0  0  0  0
    8.2244   -1.1330   -0.7449 H   0  0  0  0  0  0  0  0  0  0  0  0
    3.6074   -0.3308    2.1493 H   0  0  0  0  0  0  0  0  0  0  0  0
   -0.9877    1.5799    2.6141 H   0  0  0  0  0  0  0  0  0  0  0  0
    2.5841   -0.0444    4.3654 H   0  0  0  0  0  0  0  0  0  0  0  0
    0.3157    0.8974    4.6049 H   0  0  0  0  0  0  0  0  0  0  0  0
   -3.0872    4.3614   -1.2002 H   0  0  0  0  0  0  0  0  0  0  0  0
   -2.0920   -0.7349   -2.9812 H   0  0  0  0  0  0  0  0  0  0  0  0
   -3.3102    0.2163    1.9757 H   0  0  0  0  0  0  0  0  0  0  0  0
   -3.7610   -4.3661    0.0234 H   0  0  0  0  0  0  0  0  0  0  0  0
   -2.4404   -3.0362   -3.5418 H   0  0  0  0  0  0  0  0  0  0  0  0
   -2.1214   -4.1277   -2.1619 H   0  0  0  0  0  0  0  0  0  0  0  0
   -3.8130   -3.7543   -2.6486 H   0  0  0  0  0  0  0  0  0  0  0  0
   -4.1246   -1.6689    3.3579 H   0  0  0  0  0  0  0  0  0  0  0  0
   -4.3491   -3.9319    2.3984 H   0  0  0  0  0  0  0  0  0  0  0  0
  1 22  2  0  0  0  0
  2 25  2  0  0  0  0
  3  7  1  0  0  0  0
  3 12  1  0  0  0  0
  3 13  1  0  0  0  0
  4 10  1  0  0  0  0
  4 11  1  0  0  0  0
  4 16  1  0  0  0  0
  5 22  1  0  0  0  0
  5 25  1  0  0  0  0
  5 51  1  0  0  0  0
  6 27  1  0  0  0  0
  6 28  1  0  0  0  0
  6 31  1  0  0  0  0
  7  8  1  0  0  0  0
  7  9  1  0  0  0  0
  7 34  1  0  0  0  0
  8 10  1  0  0  0  0
  8 35  1  0  0  0  0
  8 36  1  0  0  0  0
  9 11  1  0  0  0  0
  9 37  1  0  0  0  0
  9 38  1  0  0  0  0
 10 39  1  0  0  0  0
 10 40  1  0  0  0  0
 11 41  1  0  0  0  0
 11 42  1  0  0  0  0
 12 15  1  0  0  0  0
 12 18  2  0  0  0  0
 13 14  2  0  0  0  0
 13 43  1  0  0  0  0
 14 15  1  0  0  0  0
 14 17  1  0  0  0  0
 15 20  2  0  0  0  0
 16 44  1  0  0  0  0
 16 45  1  0  0  0  0
 16 46  1  0  0  0  0
 17 19  2  0  0  0  0
 17 22  1  0  0  0  0
 18 23  1  0  0  0  0
 18 47  1  0  0  0  0
 19 21  1  0  0  0  0
 19 25  1  0  0  0  0
 20 24  1  0  0  0  0
 20 48  1  0  0  0  0
 21 26  1  0  0  0  0
 21 27  2  0  0  0  0
 23 24  2  0  0  0  0
 23 49  1  0  0  0  0
 24 50  1  0  0  0  0
 26 28  1  0  0  0  0
 26 29  2  0  0  0  0
 27 52  1  0  0  0  0
 28 30  2  0  0  0  0
 29 32  1  0  0  0  0
 29 53  1  0  0  0  0
 30 33  1  0  0  0  0
 30 54  1  0  0  0  0
 31 55  1  0  0  0  0
 31 56  1  0  0  0  0
 31 57  1  0  0  0  0
 32 33  2  0  0  0  0
 32 58  1  0  0  0  0
 33 59  1  0  0  0  0
M  END
> <PUBCHEM_COMPOUND_CID>
9889351

> <PUBCHEM_CONFORMER_RMSD>
0.8

> <PUBCHEM_CONFORMER_DIVERSEORDER>
9
49
51
1
30
22
35
27
47
26
45
20
42
48
2
13
50
12
38
44
10
46
37
23
41
31
24
36
29
14
32
8
21
15
16
25
43
39
4
6
11
3
33
19
5
17
34
7
18
40
28

> <PUBCHEM_MMFF94_PARTIAL_CHARGES>
40
1 -0.57
10 0.27
11 0.27
12 -0.15
13 -0.3
14 -0.05
16 0.27
17 0.06
18 -0.15
19 0.06
2 -0.57
20 -0.15
21 -0.05
22 0.62
23 -0.15
24 -0.15
25 0.62
27 -0.3
28 -0.15
29 -0.15
3 0.05
30 -0.15
31 0.26
32 -0.15
33 -0.15
4 -0.81
43 0.15
47 0.15
48 0.15
49 0.15
5 -0.49
50 0.15
51 0.37
52 0.15
53 0.15
54 0.15
58 0.15
59 0.15
6 0.05
7 0.26

> <PUBCHEM_EFFECTIVE_ROTOR_COUNT>
4.4

> <PUBCHEM_PHARMACOPHORE_FEATURES>
12
1 1 acceptor
1 2 acceptor
1 3 cation
1 4 cation
1 5 donor
1 6 cation
5 3 12 13 14 15 rings
5 5 17 19 22 25 rings
5 6 21 26 27 28 rings
6 12 15 18 20 23 24 rings
6 26 28 29 30 32 33 rings
6 4 7 8 9 10 11 rings

> <PUBCHEM_HEAVY_ATOM_COUNT>
33

> <PUBCHEM_ATOM_DEF_STEREO_COUNT>
0

> <PUBCHEM_ATOM_UDEF_STEREO_COUNT>
0

> <PUBCHEM_BOND_DEF_STEREO_COUNT>
0

> <PUBCHEM_BOND_UDEF_STEREO_COUNT>
0

> <PUBCHEM_ISOTOPIC_ATOM_COUNT>
0

> <PUBCHEM_COMPONENT_COUNT>
1

> <PUBCHEM_CACTVS_TAUTO_COUNT>
3

> <PUBCHEM_CONFORMER_ID>
0096E64700000009

> <PUBCHEM_MMFF94_ENERGY>
68.027

> <PUBCHEM_FEATURE_SELFOVERLAP>
61.083

> <PUBCHEM_SHAPE_FINGERPRINT>
10369192 42 13913188729261924638
10675989 125 9435526623724723215
107951 10 18043251228541917927
10928967 22 18201432614743421510
11488393 25 18055904631730132944
11578080 2 17916857036611460753
12160290 23 18118939470078294261
12363563 72 17757512573335070379
12553582 1 18116702097022462763
12633046 712 17417811793917354576
12633257 1 16342876458883316499
12714826 92 18272651238036715600
12788726 201 18040424487389787465
13103583 49 16701755945887581866
13965767 371 12462478845119662441
14114206 34 17677035919815314805
14251757 5 18261670381256327845
14932701 244 17386300890282046730
14950920 106 16414919784713099330
16114785 44 15768378149861385346
17909252 39 18118978116151767076
19315092 285 16269653464166685895
20505436 4 17241894163963577912
2132832 1 13398044518929214657
21792965 302 17168986862491361797
23536364 44 17023471952873380578
23559900 14 18200858618239142100
4073 2 18334580097517724334
484985 159 17703793591744655471
513202 73 18409738365010401383
57527295 17 16841610320405832869
613672 6 17763993129044869815
70251023 43 18048032171408526719
70634741 139 18342465842362729870
7970288 3 18119536680443003779

> <PUBCHEM_SHAPE_MULTIPOLES>
647.46
11.74
4.09
2.97
20.18
0.67
2.94
-9.58
-4.26
-5.11
-1.85
-0.87
-0.27
2.57

> <PUBCHEM_SHAPE_SELFOVERLAP>
1456.332

> <PUBCHEM_SHAPE_VOLUME>
345

> <PUBCHEM_COORDINATE_TYPE>
2
5
10

$$$$
