44575073
  -OEChem-10062122013D

 47 50  0     1  0  0  0  0  0999 V2000
    3.6625    0.7769   -1.9480 F   0  0  0  0  0  0  0  0  0  0  0  0
   -4.3102   -1.0796    0.4404 O   0  0  0  0  0  0  0  0  0  0  0  0
   -3.0275   -3.4298    1.9080 O   0  0  0  0  0  0  0  0  0  0  0  0
   -1.6602   -0.5101   -1.2819 N   0  0  0  0  0  0  0  0  0  0  0  0
   -0.2374   -3.1036    0.3338 N   0  0  0  0  0  0  0  0  0  0  0  0
    3.6564   -1.6949   -0.3975 N   0  0  0  0  0  0  0  0  0  0  0  0
   -2.5768    0.5286   -1.7027 C   0  0  1  0  0  0  0  0  0  0  0  0
   -1.9495   -1.3987   -0.3698 C   0  0  0  0  0  0  0  0  0  0  0  0
   -1.3793   -2.4436    0.2832 C   0  0  0  0  0  0  0  0  0  0  0  0
   -2.5906    1.6557   -0.6925 C   0  0  0  0  0  0  0  0  0  0  0  0
   -3.2102   -1.5587    0.3514 C   0  0  0  0  0  0  0  0  0  0  0  0
   -2.5901   -2.6951    1.0616 C   0  0  0  0  0  0  0  0  0  0  0  0
   -2.2004    0.9895   -3.1093 C   0  0  0  0  0  0  0  0  0  0  0  0
    1.0677   -2.6309    0.0885 C   0  0  0  0  0  0  0  0  0  0  0  0
   -1.4317    1.9699    0.0173 C   0  0  0  0  0  0  0  0  0  0  0  0
   -3.7618    2.3802   -0.4714 C   0  0  0  0  0  0  0  0  0  0  0  0
    1.3912   -1.3043    0.3514 C   0  0  0  0  0  0  0  0  0  0  0  0
   -1.4440    3.0086    0.9484 C   0  0  0  0  0  0  0  0  0  0  0  0
   -3.7742    3.4188    0.4595 C   0  0  0  0  0  0  0  0  0  0  0  0
    2.6879   -0.8896    0.0933 C   0  0  0  0  0  0  0  0  0  0  0  0
    2.0371   -3.4900   -0.4171 C   0  0  0  0  0  0  0  0  0  0  0  0
   -2.6153    3.7330    1.1695 C   0  0  0  0  0  0  0  0  0  0  0  0
    3.0974    0.4756    0.3423 C   0  0  0  0  0  0  0  0  0  0  0  0
    3.3050   -2.9776   -0.6406 C   0  0  0  0  0  0  0  0  0  0  0  0
    3.5756    1.2663   -0.7023 C   0  0  0  0  0  0  0  0  0  0  0  0
    3.0136    1.0001    1.6321 C   0  0  0  0  0  0  0  0  0  0  0  0
    3.9702    2.5816   -0.4574 C   0  0  0  0  0  0  0  0  0  0  0  0
    3.4082    2.3154    1.8772 C   0  0  0  0  0  0  0  0  0  0  0  0
    3.8865    3.1063    0.8324 C   0  0  0  0  0  0  0  0  0  0  0  0
   -3.5881    0.1073   -1.7798 H   0  0  0  0  0  0  0  0  0  0  0  0
   -0.7373   -0.4806   -1.7104 H   0  0  0  0  0  0  0  0  0  0  0  0
   -2.9000    1.7493   -3.4742 H   0  0  0  0  0  0  0  0  0  0  0  0
   -2.2133    0.1494   -3.8125 H   0  0  0  0  0  0  0  0  0  0  0  0
   -1.1951    1.4264   -3.1332 H   0  0  0  0  0  0  0  0  0  0  0  0
   -0.2196   -4.0458    0.7206 H   0  0  0  0  0  0  0  0  0  0  0  0
   -0.4962    1.4439   -0.1483 H   0  0  0  0  0  0  0  0  0  0  0  0
   -4.6708    2.1459   -1.0190 H   0  0  0  0  0  0  0  0  0  0  0  0
    0.6622   -0.6132    0.7622 H   0  0  0  0  0  0  0  0  0  0  0  0
   -0.5399    3.2569    1.4968 H   0  0  0  0  0  0  0  0  0  0  0  0
   -4.6860    3.9833    0.6313 H   0  0  0  0  0  0  0  0  0  0  0  0
    1.8187   -4.5303   -0.6340 H   0  0  0  0  0  0  0  0  0  0  0  0
   -2.6246    4.5426    1.8933 H   0  0  0  0  0  0  0  0  0  0  0  0
    4.0968   -3.6063   -1.0343 H   0  0  0  0  0  0  0  0  0  0  0  0
    2.6486    0.3993    2.4619 H   0  0  0  0  0  0  0  0  0  0  0  0
    4.3425    3.1971   -1.2710 H   0  0  0  0  0  0  0  0  0  0  0  0
    3.3438    2.7236    2.8816 H   0  0  0  0  0  0  0  0  0  0  0  0
    4.1937    4.1303    1.0232 H   0  0  0  0  0  0  0  0  0  0  0  0
  1 25  1  0  0  0  0
  2 11  2  0  0  0  0
  3 12  2  0  0  0  0
  4  7  1  0  0  0  0
  4  8  1  0  0  0  0
  4 31  1  0  0  0  0
  5  9  1  0  0  0  0
  5 14  1  0  0  0  0
  5 35  1  0  0  0  0
  6 20  2  0  0  0  0
  6 24  1  0  0  0  0
  7 10  1  0  0  0  0
  7 13  1  0  0  0  0
  7 30  1  0  0  0  0
  8  9  2  0  0  0  0
  8 11  1  0  0  0  0
  9 12  1  0  0  0  0
 10 15  2  0  0  0  0
 10 16  1  0  0  0  0
 11 12  1  0  0  0  0
 13 32  1  0  0  0  0
 13 33  1  0  0  0  0
 13 34  1  0  0  0  0
 14 17  2  0  0  0  0
 14 21  1  0  0  0  0
 15 18  1  0  0  0  0
 15 36  1  0  0  0  0
 16 19  2  0  0  0  0
 16 37  1  0  0  0  0
 17 20  1  0  0  0  0
 17 38  1  0  0  0  0
 18 22  2  0  0  0  0
 18 39  1  0  0  0  0
 19 22  1  0  0  0  0
 19 40  1  0  0  0  0
 20 23  1  0  0  0  0
 21 24  2  0  0  0  0
 21 41  1  0  0  0  0
 22 42  1  0  0  0  0
 23 25  1  0  0  0  0
 23 26  2  0  0  0  0
 24 43  1  0  0  0  0
 25 27  2  0  0  0  0
 26 28  1  0  0  0  0
 26 44  1  0  0  0  0
 27 29  1  0  0  0  0
 27 45  1  0  0  0  0
 28 29  2  0  0  0  0
 28 46  1  0  0  0  0
 29 47  1  0  0  0  0
M  END
> <PUBCHEM_COMPOUND_CID>
44575073

> <PUBCHEM_CONFORMER_RMSD>
1.4

> <PUBCHEM_CONFORMER_DIVERSEORDER>
1
70
38
73
86
84
34
35
49
11
45
8
71
54
41
83
40
95
96
52
89
31
46
39
61
56
85
74
78
75
59
43
99
91
87
57
44
66
62
90
77
81
80
32
12
60
63
64
97
19
58
48
21
92
25
82
42
24
67
13
23
2
50
65
17
53
79
88
22
6
16
76
33
7
72
27
3
55
98
36
14
68
18
37
20
5
51
94
30
93
26
69
47
29
10
4
15
28
9

> <PUBCHEM_MMFF94_PARTIAL_CHARGES>
41
1 -0.19
10 -0.14
11 0.64
12 0.64
14 0.1
15 -0.15
16 -0.15
17 -0.15
18 -0.15
19 -0.15
2 -0.57
20 0.31
21 -0.15
22 -0.15
24 0.16
25 0.19
26 -0.15
27 -0.15
28 -0.15
29 -0.15
3 -0.57
31 0.4
35 0.4
36 0.15
37 0.15
38 0.15
39 0.15
4 -0.87
40 0.15
41 0.15
42 0.15
43 0.15
44 0.15
45 0.15
46 0.15
47 0.15
5 -0.6
6 -0.62
7 0.51
8 0.03
9 0.03

> <PUBCHEM_EFFECTIVE_ROTOR_COUNT>
6

> <PUBCHEM_PHARMACOPHORE_FEATURES>
11
1 2 acceptor
1 3 acceptor
1 4 cation
1 4 donor
1 5 cation
1 5 donor
1 6 acceptor
4 8 9 11 12 rings
6 10 15 16 18 19 22 rings
6 23 25 26 27 28 29 rings
6 6 14 17 20 21 24 rings

> <PUBCHEM_HEAVY_ATOM_COUNT>
29

> <PUBCHEM_ATOM_DEF_STEREO_COUNT>
1

> <PUBCHEM_ATOM_UDEF_STEREO_COUNT>
0

> <PUBCHEM_BOND_DEF_STEREO_COUNT>
0

> <PUBCHEM_BOND_UDEF_STEREO_COUNT>
0

> <PUBCHEM_ISOTOPIC_ATOM_COUNT>
0

> <PUBCHEM_COMPONENT_COUNT>
1

> <PUBCHEM_CACTVS_TAUTO_COUNT>
11

> <PUBCHEM_CONFORMER_ID>
02A8296100000001

> <PUBCHEM_MMFF94_ENERGY>
91.2756

> <PUBCHEM_FEATURE_SELFOVERLAP>
55.822

> <PUBCHEM_SHAPE_FINGERPRINT>
10439779 11 18193822765923554194
10670039 82 18117003397742239948
1100329 8 18051417271035783274
11059048 146 18340781368209386076
12107698 1 18129087949111414415
12156800 1 16761767290647536833
12633257 1 17972591096270824878
12788726 201 17974861875561166076
13122387 1 17043729016012293704
13140716 1 18335692798388633938
14114207 22 14521384058517734444
14363568 33 17109894877087632569
14787075 74 18339634548223213493
14955137 171 17542815421250984531
17980427 23 17839425979124786698
20764821 26 18341325626243102488
21860390 5 17697314014818298590
22749437 52 18335965524459102884
23536364 44 17985858993899601076
23558518 356 18268420257284784803
350125 39 18409455808260763322
469060 322 17386852896743544913
474 4 17762616197031135725
50150288 127 16628593291150539041
5081480 168 16554557512506154534
57527585 21 18269539697608514989
6287921 2 18335151911560815172
9981440 41 18055037043592272482

> <PUBCHEM_SHAPE_MULTIPOLES>
562.85
8.67
5.71
1.77
2.09
0.39
0.85
-4.43
0
-0.66
-2.16
-0.66
-0.47
1.56

> <PUBCHEM_SHAPE_SELFOVERLAP>
1245.444

> <PUBCHEM_SHAPE_VOLUME>
300.7

> <PUBCHEM_COORDINATE_TYPE>
2
5
10

$$$$
