10479082
  -OEChem-10062122023D

 61 65  0     0  0  0  0  0  0999 V2000
   -3.5503   -2.0394   -0.0407 O   0  0  0  0  0  0  0  0  0  0  0  0
    7.2872    1.5119    1.1406 O   0  0  0  0  0  0  0  0  0  0  0  0
   -7.6441    0.9597    0.3112 N   0  0  0  0  0  0  0  0  0  0  0  0
   -6.0127    2.1822   -0.9611 N   0  0  0  0  0  0  0  0  0  0  0  0
   -1.8127   -0.4753   -0.2398 N   0  0  0  0  0  0  0  0  0  0  0  0
    7.6479    1.2659   -1.0534 N   0  0  0  0  0  0  0  0  0  0  0  0
    8.7415    1.9146   -0.5108 N   0  0  0  0  0  0  0  0  0  0  0  0
   -9.4333    0.3006    1.6878 C   0  0  0  0  0  0  0  0  0  0  0  0
   -9.9610    1.2304    0.6092 C   0  0  0  0  0  0  0  0  0  0  0  0
   -8.0983   -0.1716    1.1162 C   0  0  0  0  0  0  0  0  0  0  0  0
   -8.7035    1.9479    0.1238 C   0  0  0  0  0  0  0  0  0  0  0  0
   -6.3723    1.0804   -0.2063 C   0  0  0  0  0  0  0  0  0  0  0  0
   -5.4207    0.0618    0.0381 C   0  0  0  0  0  0  0  0  0  0  0  0
   -4.1338    0.1697   -0.4775 C   0  0  0  0  0  0  0  0  0  0  0  0
   -4.7526    2.2523   -1.4456 C   0  0  0  0  0  0  0  0  0  0  0  0
   -3.7854    1.2828   -1.2347 C   0  0  0  0  0  0  0  0  0  0  0  0
    1.7337   -1.4480    0.0791 C   0  0  0  0  0  0  0  0  0  0  0  0
   -3.1559   -0.8767   -0.2264 C   0  0  0  0  0  0  0  0  0  0  0  0
    3.0356   -0.8131    0.0250 C   0  0  0  0  0  0  0  0  0  0  0  0
   -0.6534   -1.2677   -0.0534 C   0  0  0  0  0  0  0  0  0  0  0  0
    1.6111   -2.8177    0.3122 C   0  0  0  0  0  0  0  0  0  0  0  0
    0.5927   -0.6670   -0.1051 C   0  0  0  0  0  0  0  0  0  0  0  0
    3.7327   -0.7011   -1.1780 C   0  0  0  0  0  0  0  0  0  0  0  0
   -0.7933   -2.6256    0.1769 C   0  0  0  0  0  0  0  0  0  0  0  0
    3.5899   -0.3094    1.2019 C   0  0  0  0  0  0  0  0  0  0  0  0
    0.3476   -3.4066    0.3612 C   0  0  0  0  0  0  0  0  0  0  0  0
    4.9841   -0.0858   -1.2042 C   0  0  0  0  0  0  0  0  0  0  0  0
    5.5385    0.4177   -0.0274 C   0  0  0  0  0  0  0  0  0  0  0  0
    4.8413    0.3058    1.1755 C   0  0  0  0  0  0  0  0  0  0  0  0
    2.8111   -3.6864    0.5144 C   0  0  0  0  0  0  0  0  0  0  0  0
    3.1704   -1.2300   -2.4587 C   0  0  0  0  0  0  0  0  0  0  0  0
    6.8327    1.0544   -0.0538 C   0  0  0  0  0  0  0  0  0  0  0  0
    8.4873    2.0370    0.7711 C   0  0  0  0  0  0  0  0  0  0  0  0
    9.2981    2.6463    1.8327 C   0  0  0  0  0  0  0  0  0  0  0  0
   -9.2679    0.8621    2.6154 H   0  0  0  0  0  0  0  0  0  0  0  0
  -10.1119   -0.5287    1.9060 H   0  0  0  0  0  0  0  0  0  0  0  0
  -10.3974    0.6436   -0.2083 H   0  0  0  0  0  0  0  0  0  0  0  0
  -10.7223    1.9235    0.9777 H   0  0  0  0  0  0  0  0  0  0  0  0
   -7.4177   -0.4136    1.9393 H   0  0  0  0  0  0  0  0  0  0  0  0
   -8.2385   -1.0550    0.4830 H   0  0  0  0  0  0  0  0  0  0  0  0
   -8.8099    2.2514   -0.9230 H   0  0  0  0  0  0  0  0  0  0  0  0
   -8.4990    2.8336    0.7357 H   0  0  0  0  0  0  0  0  0  0  0  0
   -5.6795   -0.8145    0.6251 H   0  0  0  0  0  0  0  0  0  0  0  0
   -4.5347    3.1356   -2.0367 H   0  0  0  0  0  0  0  0  0  0  0  0
   -2.8135    1.4143   -1.6963 H   0  0  0  0  0  0  0  0  0  0  0  0
    0.6807    0.4019   -0.2877 H   0  0  0  0  0  0  0  0  0  0  0  0
   -1.6096    0.5130   -0.3624 H   0  0  0  0  0  0  0  0  0  0  0  0
    3.0607   -0.3882    2.1488 H   0  0  0  0  0  0  0  0  0  0  0  0
   -1.7329   -3.1547    0.2291 H   0  0  0  0  0  0  0  0  0  0  0  0
    0.2344   -4.4724    0.5419 H   0  0  0  0  0  0  0  0  0  0  0  0
    5.5249   -0.0007   -2.1444 H   0  0  0  0  0  0  0  0  0  0  0  0
    5.2405    0.6856    2.1126 H   0  0  0  0  0  0  0  0  0  0  0  0
    3.4595   -3.6731   -0.3671 H   0  0  0  0  0  0  0  0  0  0  0  0
    3.3807   -3.3629    1.3918 H   0  0  0  0  0  0  0  0  0  0  0  0
    2.5292   -4.7314    0.6860 H   0  0  0  0  0  0  0  0  0  0  0  0
    3.8467   -1.0518   -3.3023 H   0  0  0  0  0  0  0  0  0  0  0  0
    3.0121   -2.3112   -2.4014 H   0  0  0  0  0  0  0  0  0  0  0  0
    2.2243   -0.7348   -2.7004 H   0  0  0  0  0  0  0  0  0  0  0  0
    8.7592    3.4756    2.3004 H   0  0  0  0  0  0  0  0  0  0  0  0
    9.5380    1.9094    2.6047 H   0  0  0  0  0  0  0  0  0  0  0  0
   10.2377    3.0349    1.4286 H   0  0  0  0  0  0  0  0  0  0  0  0
  1 18  2  0  0  0  0
  2 32  1  0  0  0  0
  2 33  1  0  0  0  0
  3 10  1  0  0  0  0
  3 11  1  0  0  0  0
  3 12  1  0  0  0  0
  4 12  2  0  0  0  0
  4 15  1  0  0  0  0
  5 18  1  0  0  0  0
  5 20  1  0  0  0  0
  5 47  1  0  0  0  0
  6  7  1  0  0  0  0
  6 32  2  0  0  0  0
  7 33  2  0  0  0  0
  8  9  1  0  0  0  0
  8 10  1  0  0  0  0
  8 35  1  0  0  0  0
  8 36  1  0  0  0  0
  9 11  1  0  0  0  0
  9 37  1  0  0  0  0
  9 38  1  0  0  0  0
 10 39  1  0  0  0  0
 10 40  1  0  0  0  0
 11 41  1  0  0  0  0
 11 42  1  0  0  0  0
 12 13  1  0  0  0  0
 13 14  2  0  0  0  0
 13 43  1  0  0  0  0
 14 16  1  0  0  0  0
 14 18  1  0  0  0  0
 15 16  2  0  0  0  0
 15 44  1  0  0  0  0
 16 45  1  0  0  0  0
 17 19  1  0  0  0  0
 17 21  2  0  0  0  0
 17 22  1  0  0  0  0
 19 23  2  0  0  0  0
 19 25  1  0  0  0  0
 20 22  2  0  0  0  0
 20 24  1  0  0  0  0
 21 26  1  0  0  0  0
 21 30  1  0  0  0  0
 22 46  1  0  0  0  0
 23 27  1  0  0  0  0
 23 31  1  0  0  0  0
 24 26  2  0  0  0  0
 24 49  1  0  0  0  0
 25 29  2  0  0  0  0
 25 48  1  0  0  0  0
 26 50  1  0  0  0  0
 27 28  2  0  0  0  0
 27 51  1  0  0  0  0
 28 29  1  0  0  0  0
 28 32  1  0  0  0  0
 29 52  1  0  0  0  0
 30 53  1  0  0  0  0
 30 54  1  0  0  0  0
 30 55  1  0  0  0  0
 31 56  1  0  0  0  0
 31 57  1  0  0  0  0
 31 58  1  0  0  0  0
 33 34  1  0  0  0  0
 34 59  1  0  0  0  0
 34 60  1  0  0  0  0
 34 61  1  0  0  0  0
M  END
> <PUBCHEM_COMPOUND_CID>
10479082

> <PUBCHEM_CONFORMER_RMSD>
1

> <PUBCHEM_CONFORMER_DIVERSEORDER>
3
17
20
19
26
8
31
29
10
24
11
15
32
6
22
16
27
1
30
21
7
28
18
9
12
5
14
13
2
4
25
23

> <PUBCHEM_MMFF94_PARTIAL_CHARGES>
40
1 -0.57
10 0.37
11 0.37
12 0.41
13 -0.15
14 0.09
15 0.16
16 -0.15
18 0.54
2 -0.28
20 0.12
21 -0.14
22 -0.15
23 -0.14
24 -0.15
25 -0.15
26 -0.15
27 -0.15
28 0.05
29 -0.15
3 -0.84
30 0.14
31 0.14
32 0.43
33 0.3
34 0.18
4 -0.62
43 0.15
44 0.15
45 0.15
46 0.15
47 0.37
48 0.15
49 0.15
5 -0.55
50 0.15
51 0.15
52 0.15
6 -0.34
7 -0.34

> <PUBCHEM_EFFECTIVE_ROTOR_COUNT>
7

> <PUBCHEM_PHARMACOPHORE_FEATURES>
8
1 1 acceptor
1 5 donor
3 3 4 12 cation
5 2 6 7 32 33 rings
5 3 8 9 10 11 rings
6 17 20 21 22 24 26 rings
6 19 23 25 27 28 29 rings
6 4 12 13 14 15 16 rings

> <PUBCHEM_HEAVY_ATOM_COUNT>
34

> <PUBCHEM_ATOM_DEF_STEREO_COUNT>
0

> <PUBCHEM_ATOM_UDEF_STEREO_COUNT>
0

> <PUBCHEM_BOND_DEF_STEREO_COUNT>
0

> <PUBCHEM_BOND_UDEF_STEREO_COUNT>
0

> <PUBCHEM_ISOTOPIC_ATOM_COUNT>
0

> <PUBCHEM_COMPONENT_COUNT>
1

> <PUBCHEM_CACTVS_TAUTO_COUNT>
2

> <PUBCHEM_CONFORMER_ID>
009FE5EA00000003

> <PUBCHEM_MMFF94_ENERGY>
109.2658

> <PUBCHEM_FEATURE_SELFOVERLAP>
40.599

> <PUBCHEM_SHAPE_FINGERPRINT>
10 15 18113900455500655939
10029044 110 17632576084930939936
10055352 69 18201434818440523745
10369192 42 18343300362559908543
10666366 153 10447929443522197419
10930396 42 16805602582370610717
11115154 58 15410899560819643826
11135609 201 18410855447713076939
11408170 108 12179837278410030081
11408170 132 13686299062703983674
11409948 41 15266519344378729748
11409948 8 18261120703785430251
11607047 141 18262231128994242306
11607047 74 9294987091593346226
11828042 206 12535345684000845082
12098696 120 18410295804419944260
12592606 108 9727631700869618949
12838862 33 18260257552128260357
13008946 119 18341887533052708226
13008946 335 17822012004280151802
14040221 8 13830142676372152547
14294032 229 18340485677081089591
14359421 15 11599733860910414804
14461889 52 17822020783340666163
14617042 71 18342179955964372369
15152005 77 11747202563898766832
15183329 4 11743834747625388719
15188451 53 11674879987494707935
15347590 135 17603865581572091497
1577012 14 18412818101374678206
15840311 113 18259987046756700250
16126227 98 18410856568820743295
16991971 28 9727637224208007178
1768 4 18341896299217680257
18603816 31 12324250499025499817
18608769 82 18334860528791092539
19302320 297 18113620123065075580
19304671 126 17988650662085690974
20156587 128 15410348667345732520
2026 5 7853586711524971848
20505436 4 18272927228399134599
21033648 29 18339068406934810088
21130935 74 18115876184061149619
21304304 249 8574709109087693192
22149856 69 18043548114351981281
23559900 14 10591172736263317967
23576562 1 14332542576023277649
23729398 52 18123472679305947634
24771293 8 18408320008390766567
25242607 90 7997969046608154604
25269216 80 17060043892469369239
2851757 41 8502374459674179465
3146122 72 16415186936896668312
3711267 37 18130798862424997545
3918712 181 18412255121499268048
4073 2 18260270737873648435
4093350 32 17489309646679762415
4112364 45 18339919321160470302
4339292 15 9295300430752460160
44280117 145 17986950954764653775
4516262 110 18340761555994280743
504579 68 14692854700380911385
5104073 3 17970906657964278131
5372103 7 17775286097441682028
5470011 282 14045739370291209960
5718773 13 9511462234275317878
5758199 1 18410854364911507823
59682541 35 18041002847601360433
6081469 158 9511463316264412745
9663363 56 10015581680039258934
9962374 69 11314321571540389314

> <PUBCHEM_SHAPE_MULTIPOLES>
663.06
32.63
3.29
1.45
21.39
1.97
-0.25
-34.22
10.8
-3.39
0.48
-1.01
-0.39
2.45

> <PUBCHEM_SHAPE_SELFOVERLAP>
1460.28

> <PUBCHEM_SHAPE_VOLUME>
359.8

> <PUBCHEM_COORDINATE_TYPE>
2
5
10

$$$$
