23433024
  -OEChem-10052115183D

 53 55  0     0  0  0  0  0  0999 V2000
    7.1201   -0.0476   -0.9858 O   0  0  0  0  0  0  0  0  0  0  0  0
   -5.2864    0.8825   -0.4448 N   0  0  0  0  0  0  0  0  0  0  0  0
   -2.9500   -1.2985    1.0284 N   0  0  0  0  0  0  0  0  0  0  0  0
    1.5069    0.7654    0.6276 N   0  0  0  0  0  0  0  0  0  0  0  0
   -0.6391   -0.9130    0.5952 N   0  0  0  0  0  0  0  0  0  0  0  0
    2.9150   -0.7373   -0.2085 N   0  0  0  0  0  0  0  0  0  0  0  0
    5.4055   -1.5671   -1.0868 N   0  0  0  0  0  0  0  0  0  0  0  0
   -5.5940    0.0299    0.6970 C   0  0  0  0  0  0  0  0  0  0  0  0
   -4.6232    0.2578    1.8599 C   0  0  0  0  0  0  0  0  0  0  0  0
   -3.1523    0.0271    1.5151 C   0  0  0  0  0  0  0  0  0  0  0  0
   -5.8332    0.3117   -1.6770 C   0  0  0  0  0  0  0  0  0  0  0  0
   -5.8102    2.2336   -0.2355 C   0  0  0  0  0  0  0  0  0  0  0  0
   -7.3491    0.2286   -1.6181 C   0  0  0  0  0  0  0  0  0  0  0  0
   -5.4395    3.1509   -1.3884 C   0  0  0  0  0  0  0  0  0  0  0  0
   -1.6914   -1.7613    0.5705 C   0  0  0  0  0  0  0  0  0  0  0  0
    1.6356   -0.4674    0.1907 C   0  0  0  0  0  0  0  0  0  0  0  0
    2.7603    1.3200    0.5063 C   0  0  0  0  0  0  0  0  0  0  0  0
    3.6617    0.3967   -0.0163 C   0  0  0  0  0  0  0  0  0  0  0  0
    0.5384   -1.4037    0.1477 C   0  0  0  0  0  0  0  0  0  0  0  0
   -1.6221   -3.0704    0.1216 C   0  0  0  0  0  0  0  0  0  0  0  0
    5.0071    0.6852   -0.2475 C   0  0  0  0  0  0  0  0  0  0  0  0
    0.7122   -2.6961   -0.3207 C   0  0  0  0  0  0  0  0  0  0  0  0
    3.2105    2.6129    0.8227 C   0  0  0  0  0  0  0  0  0  0  0  0
   -0.3936   -3.5389   -0.3308 C   0  0  0  0  0  0  0  0  0  0  0  0
    5.4379    1.9769    0.0732 C   0  0  0  0  0  0  0  0  0  0  0  0
    4.5573    2.9251    0.5988 C   0  0  0  0  0  0  0  0  0  0  0  0
    5.9155   -0.3029   -0.7944 C   0  0  0  0  0  0  0  0  0  0  0  0
   -6.6159    0.1857    1.0666 H   0  0  0  0  0  0  0  0  0  0  0  0
   -5.5318   -1.0300    0.4178 H   0  0  0  0  0  0  0  0  0  0  0  0
   -4.9065   -0.4252    2.6721 H   0  0  0  0  0  0  0  0  0  0  0  0
   -4.7389    1.2688    2.2671 H   0  0  0  0  0  0  0  0  0  0  0  0
   -2.5512    0.1903    2.4178 H   0  0  0  0  0  0  0  0  0  0  0  0
   -2.8274    0.7655    0.7725 H   0  0  0  0  0  0  0  0  0  0  0  0
   -5.5098    0.8636   -2.5658 H   0  0  0  0  0  0  0  0  0  0  0  0
   -5.4233   -0.6965   -1.8214 H   0  0  0  0  0  0  0  0  0  0  0  0
   -6.8883    2.2723   -0.0437 H   0  0  0  0  0  0  0  0  0  0  0  0
   -5.3371    2.6621    0.6562 H   0  0  0  0  0  0  0  0  0  0  0  0
   -3.6010   -2.0214    1.3198 H   0  0  0  0  0  0  0  0  0  0  0  0
   -7.8371    1.2072   -1.6221 H   0  0  0  0  0  0  0  0  0  0  0  0
   -7.7042   -0.2860   -2.5194 H   0  0  0  0  0  0  0  0  0  0  0  0
   -7.7242   -0.3536   -0.7719 H   0  0  0  0  0  0  0  0  0  0  0  0
   -4.3766    3.0731   -1.6424 H   0  0  0  0  0  0  0  0  0  0  0  0
   -6.0333    2.9588   -2.2871 H   0  0  0  0  0  0  0  0  0  0  0  0
   -5.6293    4.1920   -1.1035 H   0  0  0  0  0  0  0  0  0  0  0  0
    0.6809    1.2322    0.9813 H   0  0  0  0  0  0  0  0  0  0  0  0
   -2.4891   -3.7228    0.1151 H   0  0  0  0  0  0  0  0  0  0  0  0
    1.6710   -3.0614   -0.6737 H   0  0  0  0  0  0  0  0  0  0  0  0
    2.5328    3.3560    1.2315 H   0  0  0  0  0  0  0  0  0  0  0  0
   -0.2983   -4.5590   -0.6909 H   0  0  0  0  0  0  0  0  0  0  0  0
    6.4745    2.2681   -0.0828 H   0  0  0  0  0  0  0  0  0  0  0  0
    4.9214    3.9209    0.8381 H   0  0  0  0  0  0  0  0  0  0  0  0
    6.0114   -2.2881   -1.4650 H   0  0  0  0  0  0  0  0  0  0  0  0
    4.4362   -1.8289   -0.9441 H   0  0  0  0  0  0  0  0  0  0  0  0
  1 27  2  0  0  0  0
  2  8  1  0  0  0  0
  2 11  1  0  0  0  0
  2 12  1  0  0  0  0
  3 10  1  0  0  0  0
  3 15  1  0  0  0  0
  3 38  1  0  0  0  0
  4 16  1  0  0  0  0
  4 17  1  0  0  0  0
  4 45  1  0  0  0  0
  5 15  1  0  0  0  0
  5 19  2  0  0  0  0
  6 16  2  0  0  0  0
  6 18  1  0  0  0  0
  7 27  1  0  0  0  0
  7 52  1  0  0  0  0
  7 53  1  0  0  0  0
  8  9  1  0  0  0  0
  8 28  1  0  0  0  0
  8 29  1  0  0  0  0
  9 10  1  0  0  0  0
  9 30  1  0  0  0  0
  9 31  1  0  0  0  0
 10 32  1  0  0  0  0
 10 33  1  0  0  0  0
 11 13  1  0  0  0  0
 11 34  1  0  0  0  0
 11 35  1  0  0  0  0
 12 14  1  0  0  0  0
 12 36  1  0  0  0  0
 12 37  1  0  0  0  0
 13 39  1  0  0  0  0
 13 40  1  0  0  0  0
 13 41  1  0  0  0  0
 14 42  1  0  0  0  0
 14 43  1  0  0  0  0
 14 44  1  0  0  0  0
 15 20  2  0  0  0  0
 16 19  1  0  0  0  0
 17 18  1  0  0  0  0
 17 23  2  0  0  0  0
 18 21  2  0  0  0  0
 19 22  1  0  0  0  0
 20 24  1  0  0  0  0
 20 46  1  0  0  0  0
 21 25  1  0  0  0  0
 21 27  1  0  0  0  0
 22 24  2  0  0  0  0
 22 47  1  0  0  0  0
 23 26  1  0  0  0  0
 23 48  1  0  0  0  0
 24 49  1  0  0  0  0
 25 26  2  0  0  0  0
 25 50  1  0  0  0  0
 26 51  1  0  0  0  0
M  END
> <PUBCHEM_COMPOUND_CID>
23433024

> <PUBCHEM_CONFORMER_RMSD>
1

> <PUBCHEM_CONFORMER_DIVERSEORDER>
2
153
91
117
55
92
196
36
149
135
143
127
114
59
104
24
201
89
101
8
128
178
82
138
176
66
58
37
160
63
155
167
199
110
154
161
156
1
118
168
72
119
180
184
123
183
69
133
121
95
48
100
73
166
45
75
181
9
189
182
120
152
90
22
52
96
16
188
14
132
84
68
43
159
94
171
147
25
165
139
15
106
198
105
31
157
122
205
27
126
194
102
57
50
7
169
131
116
81
77
74
56
186
97
33
173
65
21
108
86
23
10
125
49
204
17
151
103
141
174
107
35
70
30
54
142
67
150
4
40
46
190
85
177
172
64
98
29
140
113
83
111
124
61
162
145
137
51
130
193
93
32
38
87
191
144
18
62
60
79
99
203
76
202
5
148
39
134
136
185
146
109
78
164
53
175
192
158
179
44
28
115
187
88
112
170
71
19
42
26
13
41
12
197
80
6
20
34
11
163
195
200
129
47
3

> <PUBCHEM_MMFF94_PARTIAL_CHARGES>
34
1 -0.57
10 0.37
11 0.27
12 0.27
15 0.41
16 0.13
17 -0.15
18 0.23
19 0.36
2 -0.81
20 -0.15
21 0.09
22 -0.15
23 -0.15
24 -0.15
25 -0.15
26 -0.15
27 0.54
3 -0.87
38 0.4
4 0.03
45 0.27
46 0.15
47 0.15
48 0.15
49 0.15
5 -0.62
50 0.15
51 0.15
52 0.37
53 0.37
6 -0.57
7 -0.8
8 0.27

> <PUBCHEM_EFFECTIVE_ROTOR_COUNT>
9

> <PUBCHEM_PHARMACOPHORE_FEATURES>
11
1 1 acceptor
1 2 cation
1 3 cation
1 3 donor
1 4 donor
1 5 acceptor
1 7 donor
3 4 6 16 cation
5 4 6 16 17 18 rings
6 17 18 21 23 25 26 rings
6 5 15 19 20 22 24 rings

> <PUBCHEM_HEAVY_ATOM_COUNT>
27

> <PUBCHEM_ATOM_DEF_STEREO_COUNT>
0

> <PUBCHEM_ATOM_UDEF_STEREO_COUNT>
0

> <PUBCHEM_BOND_DEF_STEREO_COUNT>
0

> <PUBCHEM_BOND_UDEF_STEREO_COUNT>
0

> <PUBCHEM_ISOTOPIC_ATOM_COUNT>
0

> <PUBCHEM_COMPONENT_COUNT>
1

> <PUBCHEM_CACTVS_TAUTO_COUNT>
16

> <PUBCHEM_CONFORMER_ID>
01658F4000000002

> <PUBCHEM_MMFF94_ENERGY>
68.4101

> <PUBCHEM_FEATURE_SELFOVERLAP>
55.928

> <PUBCHEM_SHAPE_FINGERPRINT>
10763959 59 18261116274651319612
10835480 77 18129662045254158872
11135609 149 17342952438457219526
11135609 99 11815352446905229268
11211813 89 18410866443573003838
11374522 79 14189582944329059413
12769317 202 18342452600287264937
12838862 33 18272085003667754206
13402501 40 18334574638166456533
13944108 23 17977381629710267677
14904525 67 17096091427856068116
15003188 100 18412541041914166893
15142383 8 17967248703085113544
15183329 4 18202001023267083198
15510800 12 11239416204639787725
17780758 139 10809346629554906765
20567600 70 10231748981426548541
21033648 144 18342180019897667121
21033648 29 18040995184683229072
21133410 127 17615397495431883533
21279426 13 18271255997053049378
21521239 73 17561362872372356111
21859007 373 18335691733395565224
22121540 332 18041833987670035086
23559900 14 17988091097114709322
2838139 119 18410008832249059115
335352 9 18271536355670566278
4015057 19 17775288317306889081
5104073 3 18197786707653198586
6371009 1 18271804584182328424

> <PUBCHEM_SHAPE_MULTIPOLES>
519.89
18.78
3.63
1.36
7.15
0.62
-0.01
-12.27
-7.32
0.25
-0.33
2.1
-0.28
2.45

> <PUBCHEM_SHAPE_SELFOVERLAP>
1108.134

> <PUBCHEM_SHAPE_VOLUME>
290.3

> <PUBCHEM_COORDINATE_TYPE>
2
5
10

$$$$
