52944268
  -OEChem-10052115163D

 56 60  0     0  0  0  0  0  0999 V2000
  -10.1235    2.2376    0.1596 O   0  0  0  0  0  0  0  0  0  0  0  0
   -4.8524   -1.4593   -0.3964 O   0  0  0  0  0  0  0  0  0  0  0  0
    6.9653    3.0522   -1.6129 O   0  0  0  0  0  0  0  0  0  0  0  0
    8.6757    3.1141    0.5765 O   0  0  0  0  0  0  0  0  0  0  0  0
   -7.7015    0.7546    0.3517 N   0  0  0  0  0  0  0  0  0  0  0  0
    2.9598   -2.0313   -0.0906 N   0  0  0  0  0  0  0  0  0  0  0  0
    2.7759    0.3594    0.0607 N   0  0  0  0  0  0  0  0  0  0  0  0
    3.9039   -3.0090   -0.1045 N   0  0  0  0  0  0  0  0  0  0  0  0
   -8.7464    0.6564    1.3804 C   0  0  0  0  0  0  0  0  0  0  0  0
   -8.3044    1.0768   -0.9491 C   0  0  0  0  0  0  0  0  0  0  0  0
   -6.9316   -0.4851    0.2740 C   0  0  0  0  0  0  0  0  0  0  0  0
   -9.5443    1.9561    1.4343 C   0  0  0  0  0  0  0  0  0  0  0  0
   -9.1118    2.3671   -0.8400 C   0  0  0  0  0  0  0  0  0  0  0  0
   -5.5714   -0.2335   -0.3568 C   0  0  0  0  0  0  0  0  0  0  0  0
   -3.4858   -1.3760   -0.3350 C   0  0  0  0  0  0  0  0  0  0  0  0
    0.7623   -1.1184   -0.1459 C   0  0  0  0  0  0  0  0  0  0  0  0
   -0.7039   -1.2072   -0.2107 C   0  0  0  0  0  0  0  0  0  0  0  0
    3.5373   -0.7688    0.0262 C   0  0  0  0  0  0  0  0  0  0  0  0
    4.8976   -0.9677    0.0866 C   0  0  0  0  0  0  0  0  0  0  0  0
    1.5780   -2.1853   -0.1732 C   0  0  0  0  0  0  0  0  0  0  0  0
   -2.7493   -2.4104    0.2425 C   0  0  0  0  0  0  0  0  0  0  0  0
   -2.8313   -0.2573   -0.8503 C   0  0  0  0  0  0  0  0  0  0  0  0
   -1.3583   -2.3261    0.3045 C   0  0  0  0  0  0  0  0  0  0  0  0
   -1.4404   -0.1728   -0.7880 C   0  0  0  0  0  0  0  0  0  0  0  0
    5.8649    0.0804    0.2096 C   0  0  0  0  0  0  0  0  0  0  0  0
    1.4916    0.1832   -0.0197 C   0  0  0  0  0  0  0  0  0  0  0  0
    5.0609   -2.3568    0.0020 C   0  0  0  0  0  0  0  0  0  0  0  0
    5.9493    1.0701   -0.7697 C   0  0  0  0  0  0  0  0  0  0  0  0
    6.7237    0.1115    1.3084 C   0  0  0  0  0  0  0  0  0  0  0  0
    6.8923    2.0911   -0.6503 C   0  0  0  0  0  0  0  0  0  0  0  0
    7.6669    1.1322    1.4277 C   0  0  0  0  0  0  0  0  0  0  0  0
    7.7510    2.1221    0.4485 C   0  0  0  0  0  0  0  0  0  0  0  0
   -8.2986    0.4779    2.3647 H   0  0  0  0  0  0  0  0  0  0  0  0
   -9.4218   -0.1794    1.1560 H   0  0  0  0  0  0  0  0  0  0  0  0
   -7.5400    1.2194   -1.7192 H   0  0  0  0  0  0  0  0  0  0  0  0
   -8.9662    0.2634   -1.2746 H   0  0  0  0  0  0  0  0  0  0  0  0
   -7.4706   -1.2803   -0.2579 H   0  0  0  0  0  0  0  0  0  0  0  0
   -6.7473   -0.8841    1.2811 H   0  0  0  0  0  0  0  0  0  0  0  0
  -10.3610    1.8623    2.1572 H   0  0  0  0  0  0  0  0  0  0  0  0
   -8.9198    2.8018    1.7474 H   0  0  0  0  0  0  0  0  0  0  0  0
   -8.4721    3.2265   -0.6047 H   0  0  0  0  0  0  0  0  0  0  0  0
   -9.6104    2.5765   -1.7918 H   0  0  0  0  0  0  0  0  0  0  0  0
   -5.0506    0.5200    0.2497 H   0  0  0  0  0  0  0  0  0  0  0  0
   -5.6707    0.1347   -1.3832 H   0  0  0  0  0  0  0  0  0  0  0  0
    1.2296   -3.2074   -0.2686 H   0  0  0  0  0  0  0  0  0  0  0  0
   -3.2546   -3.2823    0.6489 H   0  0  0  0  0  0  0  0  0  0  0  0
   -3.3641    0.5546   -1.3364 H   0  0  0  0  0  0  0  0  0  0  0  0
   -0.8192   -3.1427    0.7773 H   0  0  0  0  0  0  0  0  0  0  0  0
   -0.9598    0.6997   -1.2221 H   0  0  0  0  0  0  0  0  0  0  0  0
    0.8618    1.0857    0.0311 H   0  0  0  0  0  0  0  0  0  0  0  0
    5.9769   -2.9307    0.0126 H   0  0  0  0  0  0  0  0  0  0  0  0
    5.2870    1.0489   -1.6330 H   0  0  0  0  0  0  0  0  0  0  0  0
    6.6713   -0.6501    2.0829 H   0  0  0  0  0  0  0  0  0  0  0  0
    8.3294    1.1448    2.2890 H   0  0  0  0  0  0  0  0  0  0  0  0
    6.2958    2.8704   -2.2946 H   0  0  0  0  0  0  0  0  0  0  0  0
    9.1797    2.9734    1.3964 H   0  0  0  0  0  0  0  0  0  0  0  0
  1 12  1  0  0  0  0
  1 13  1  0  0  0  0
  2 14  1  0  0  0  0
  2 15  1  0  0  0  0
  3 30  1  0  0  0  0
  3 55  1  0  0  0  0
  4 32  1  0  0  0  0
  4 56  1  0  0  0  0
  5  9  1  0  0  0  0
  5 10  1  0  0  0  0
  5 11  1  0  0  0  0
  6  8  1  0  0  0  0
  6 18  1  0  0  0  0
  6 20  1  0  0  0  0
  7 18  1  0  0  0  0
  7 26  2  0  0  0  0
  8 27  2  0  0  0  0
  9 12  1  0  0  0  0
  9 33  1  0  0  0  0
  9 34  1  0  0  0  0
 10 13  1  0  0  0  0
 10 35  1  0  0  0  0
 10 36  1  0  0  0  0
 11 14  1  0  0  0  0
 11 37  1  0  0  0  0
 11 38  1  0  0  0  0
 12 39  1  0  0  0  0
 12 40  1  0  0  0  0
 13 41  1  0  0  0  0
 13 42  1  0  0  0  0
 14 43  1  0  0  0  0
 14 44  1  0  0  0  0
 15 21  2  0  0  0  0
 15 22  1  0  0  0  0
 16 17  1  0  0  0  0
 16 20  2  0  0  0  0
 16 26  1  0  0  0  0
 17 23  2  0  0  0  0
 17 24  1  0  0  0  0
 18 19  2  0  0  0  0
 19 25  1  0  0  0  0
 19 27  1  0  0  0  0
 20 45  1  0  0  0  0
 21 23  1  0  0  0  0
 21 46  1  0  0  0  0
 22 24  2  0  0  0  0
 22 47  1  0  0  0  0
 23 48  1  0  0  0  0
 24 49  1  0  0  0  0
 25 28  2  0  0  0  0
 25 29  1  0  0  0  0
 26 50  1  0  0  0  0
 27 51  1  0  0  0  0
 28 30  1  0  0  0  0
 28 52  1  0  0  0  0
 29 31  2  0  0  0  0
 29 53  1  0  0  0  0
 30 32  2  0  0  0  0
 31 32  1  0  0  0  0
 31 54  1  0  0  0  0
M  END
> <PUBCHEM_COMPOUND_CID>
52944268

> <PUBCHEM_CONFORMER_RMSD>
1

> <PUBCHEM_CONFORMER_DIVERSEORDER>
1
58
41
34
25
6
8
23
37
63
35
36
50
21
45
26
46
30
49
13
27
60
11
39
55
29
38
47
54
42
31
52
40
7
44
2
62
43
57
32
48
24
14
5
3
15
9
17
59
56
53
19
61
10
16
51
33
22
12
20
28
4
18

> <PUBCHEM_MMFF94_PARTIAL_CHARGES>
44
1 -0.56
10 0.27
11 0.27
12 0.28
13 0.28
14 0.28
15 0.08
16 -0.01
17 0.03
18 -0.03
19 -0.05
2 -0.36
20 -0.18
21 -0.15
22 -0.15
23 -0.15
24 -0.15
25 0.05
26 0.38
27 0.14
28 -0.15
29 -0.15
3 -0.53
30 0.08
31 -0.15
32 0.08
4 -0.53
45 0.15
46 0.15
47 0.15
48 0.15
49 0.15
5 -0.81
50 0.06
51 0.15
52 0.15
53 0.15
54 0.15
55 0.45
56 0.45
6 0.6
7 -0.58
8 -0.71
9 0.27

> <PUBCHEM_EFFECTIVE_ROTOR_COUNT>
7.2

> <PUBCHEM_PHARMACOPHORE_FEATURES>
12
1 1 acceptor
1 2 acceptor
1 3 donor
1 4 donor
1 5 cation
1 7 acceptor
1 8 acceptor
5 6 8 18 19 27 rings
6 1 5 9 10 12 13 rings
6 15 17 21 22 23 24 rings
6 25 28 29 30 31 32 rings
6 6 7 16 18 20 26 rings

> <PUBCHEM_HEAVY_ATOM_COUNT>
32

> <PUBCHEM_ATOM_DEF_STEREO_COUNT>
0

> <PUBCHEM_ATOM_UDEF_STEREO_COUNT>
0

> <PUBCHEM_BOND_DEF_STEREO_COUNT>
0

> <PUBCHEM_BOND_UDEF_STEREO_COUNT>
0

> <PUBCHEM_ISOTOPIC_ATOM_COUNT>
0

> <PUBCHEM_COMPONENT_COUNT>
1

> <PUBCHEM_CACTVS_TAUTO_COUNT>
10

> <PUBCHEM_CONFORMER_ID>
0327DD8C00000001

> <PUBCHEM_MMFF94_ENERGY>
91.0782

> <PUBCHEM_FEATURE_SELFOVERLAP>
61.03

> <PUBCHEM_SHAPE_FINGERPRINT>
10 15 17894629279595061786
10066227 49 9727633899887807781
10533779 47 17095790046422702504
10625338 86 18040710330596405165
11181472 205 17560811970202801651
11211813 74 18343864407271267996
11386260 185 14333117607092339186
11578821 258 18342175566645303169
11607047 141 17968931964924654578
125118 31 18408322189732966574
12539765 74 18202006499630682215
13553643 46 18334572400631225629
14537116 161 17060338531199230944
14617042 71 18411139164541747316
14849402 71 18413109476957907433
150020 25 12103839047941029341
15198563 99 13686025263725582923
15461852 350 16630237074931074487
15554971 5 18272360967558359279
1577012 14 18272645753991622631
15840311 113 18409733937326023646
16991971 28 10735873976615302943
1754908 1 15936413351434832921
1818759 1 8358258168223562825
19302320 297 17967533506535554348
19315958 150 18410577266691653343
195137 175 18060136540447433543
2026 5 8358271344782852721
20771845 140 14779265298229026082
212700 22 10087627184124602629
21792934 111 18040995103184469142
21895431 317 9295021145476601212
22149856 69 18408605859944374060
23569943 247 10735342898917912397
23576562 1 15768910499038096137
24771293 8 18334011722698900575
25025965 108 11458427981843406665
25242607 90 11530486653421298335
3711267 37 18272379659319406833
3918712 181 18271240642745959576
406291 66 8502657004344828335
4073 2 18333734649832423371
4340502 62 16950554511664574674
4403749 210 18410016568177276059
44280117 145 18201153357061371791
44389302 135 12324227356729241944
444735 82 18408605846621986468
45270241 37 18201726110911380158
54039377 194 8862941680779901025
5470011 282 12679170635271000209
6081469 158 12175622863119482803
636775 72 18411418381236013985
6698420 124 18335426717129354131
9962374 69 8574709088155934930

> <PUBCHEM_SHAPE_MULTIPOLES>
615.14
34.96
3.26
1.09
51.23
0.52
-0.14
36.68
-6.49
-3.24
0.23
0.22
0.6
-0.72

> <PUBCHEM_SHAPE_SELFOVERLAP>
1351.23

> <PUBCHEM_SHAPE_VOLUME>
332

> <PUBCHEM_COORDINATE_TYPE>
2
5
10

$$$$
