24883287
  -OEChem-10062122033D

 61 64  0     1  0  0  0  0  0999 V2000
    6.3557    3.5222   -0.7566 Cl  0  0  0  0  0  0  0  0  0  0  0  0
    4.0808    1.8492   -1.6265 F   0  0  0  0  0  0  0  0  0  0  0  0
   -0.8764    1.5562   -0.7485 O   0  0  0  0  0  0  0  0  0  0  0  0
   -3.2147    2.2404    1.8868 O   0  0  0  0  0  0  0  0  0  0  0  0
   -2.7124   -3.1966   -0.4617 O   0  0  0  0  0  0  0  0  0  0  0  0
   -4.8821   -2.2178    1.0140 O   0  0  0  0  0  0  0  0  0  0  0  0
   -3.1017    2.9411   -0.3193 N   0  0  0  0  0  0  0  0  0  0  0  0
   -2.0937   -0.4553   -0.6545 N   0  0  0  0  0  0  0  0  0  0  0  0
    1.8938   -4.3178   -0.0532 N   0  0  0  0  0  0  0  0  0  0  0  0
    3.0074   -0.3408   -0.3171 N   0  0  0  0  0  0  0  0  0  0  0  0
    3.5912   -2.6077   -0.0841 N   0  0  0  0  0  0  0  0  0  0  0  0
   -3.2444    1.6157   -0.9099 C   0  0  1  0  0  0  0  0  0  0  0  0
   -3.5856    1.8752   -2.3721 C   0  0  0  0  0  0  0  0  0  0  0  0
   -2.9007    3.2070   -2.6646 C   0  0  0  0  0  0  0  0  0  0  0  0
   -3.0431    3.9711   -1.3567 C   0  0  0  0  0  0  0  0  0  0  0  0
   -1.9249    0.9193   -0.7612 C   0  0  0  0  0  0  0  0  0  0  0  0
   -3.1669    3.1409    1.0491 C   0  0  0  0  0  0  0  0  0  0  0  0
   -1.0863   -1.4373   -0.5023 C   0  0  0  0  0  0  0  0  0  0  0  0
   -3.1758    4.5419    1.5151 C   0  0  0  0  0  0  0  0  0  0  0  0
   -1.4137   -2.7855   -0.4093 C   0  0  0  0  0  0  0  0  0  0  0  0
    0.2488   -1.0496   -0.4446 C   0  0  0  0  0  0  0  0  0  0  0  0
    1.2563   -2.0182   -0.2933 C   0  0  0  0  0  0  0  0  0  0  0  0
   -0.4059   -3.7428   -0.2588 C   0  0  0  0  0  0  0  0  0  0  0  0
    0.9382   -3.3829   -0.1982 C   0  0  0  0  0  0  0  0  0  0  0  0
   -3.2378    4.7848    2.8260 C   0  0  0  0  0  0  0  0  0  0  0  0
    2.6094   -1.6978   -0.2286 C   0  0  0  0  0  0  0  0  0  0  0  0
   -3.2145   -3.9010    0.6718 C   0  0  0  0  0  0  0  0  0  0  0  0
    3.1681   -3.8796   -0.0043 C   0  0  0  0  0  0  0  0  0  0  0  0
   -4.6967   -3.6142    0.8159 C   0  0  0  0  0  0  0  0  0  0  0  0
    4.0980    0.3634    0.2176 C   0  0  0  0  0  0  0  0  0  0  0  0
    4.6217    1.4643   -0.4604 C   0  0  0  0  0  0  0  0  0  0  0  0
    4.6575   -0.0397    1.4301 C   0  0  0  0  0  0  0  0  0  0  0  0
    5.7047    2.1621    0.0742 C   0  0  0  0  0  0  0  0  0  0  0  0
    5.7404    0.6582    1.9647 C   0  0  0  0  0  0  0  0  0  0  0  0
    6.2641    1.7590    1.2868 C   0  0  0  0  0  0  0  0  0  0  0  0
   -6.2587   -1.8874    1.1338 C   0  0  0  0  0  0  0  0  0  0  0  0
   -4.0373    1.0663   -0.3901 H   0  0  0  0  0  0  0  0  0  0  0  0
   -4.6701    1.9943   -2.4847 H   0  0  0  0  0  0  0  0  0  0  0  0
   -3.2554    1.0826   -3.0502 H   0  0  0  0  0  0  0  0  0  0  0  0
   -1.8409    3.0411   -2.8914 H   0  0  0  0  0  0  0  0  0  0  0  0
   -3.3462    3.7376   -3.5107 H   0  0  0  0  0  0  0  0  0  0  0  0
   -2.2059    4.6522   -1.1789 H   0  0  0  0  0  0  0  0  0  0  0  0
   -3.9817    4.5353   -1.3276 H   0  0  0  0  0  0  0  0  0  0  0  0
   -3.0421   -0.8229   -0.6924 H   0  0  0  0  0  0  0  0  0  0  0  0
   -3.1399    5.3675    0.8169 H   0  0  0  0  0  0  0  0  0  0  0  0
    0.5466   -0.0147   -0.4991 H   0  0  0  0  0  0  0  0  0  0  0  0
   -0.6715   -4.7970   -0.1961 H   0  0  0  0  0  0  0  0  0  0  0  0
   -3.2484    5.8102    3.1821 H   0  0  0  0  0  0  0  0  0  0  0  0
   -3.2791    4.0053    3.5784 H   0  0  0  0  0  0  0  0  0  0  0  0
   -3.0514   -4.9744    0.5280 H   0  0  0  0  0  0  0  0  0  0  0  0
   -2.6950   -3.5759    1.5824 H   0  0  0  0  0  0  0  0  0  0  0  0
    2.5446    0.1584   -1.0720 H   0  0  0  0  0  0  0  0  0  0  0  0
    3.9331   -4.6376    0.1128 H   0  0  0  0  0  0  0  0  0  0  0  0
   -5.1045   -4.1687    1.6683 H   0  0  0  0  0  0  0  0  0  0  0  0
   -5.2218   -3.9153   -0.0980 H   0  0  0  0  0  0  0  0  0  0  0  0
    4.2592   -0.8848    1.9851 H   0  0  0  0  0  0  0  0  0  0  0  0
    6.1739    0.3465    2.9106 H   0  0  0  0  0  0  0  0  0  0  0  0
    7.1076    2.2935    1.7162 H   0  0  0  0  0  0  0  0  0  0  0  0
   -6.3408   -0.8078    1.2863 H   0  0  0  0  0  0  0  0  0  0  0  0
   -6.7023   -2.3966    1.9948 H   0  0  0  0  0  0  0  0  0  0  0  0
   -6.7981   -2.1521    0.2192 H   0  0  0  0  0  0  0  0  0  0  0  0
  1 33  1  0  0  0  0
  2 31  1  0  0  0  0
  3 16  2  0  0  0  0
  4 17  2  0  0  0  0
  5 20  1  0  0  0  0
  5 27  1  0  0  0  0
  6 29  1  0  0  0  0
  6 36  1  0  0  0  0
  7 12  1  0  0  0  0
  7 15  1  0  0  0  0
  7 17  1  0  0  0  0
  8 16  1  0  0  0  0
  8 18  1  0  0  0  0
  8 44  1  0  0  0  0
  9 24  1  0  0  0  0
  9 28  2  0  0  0  0
 10 26  1  0  0  0  0
 10 30  1  0  0  0  0
 10 52  1  0  0  0  0
 11 26  2  0  0  0  0
 11 28  1  0  0  0  0
 12 13  1  0  0  0  0
 12 16  1  0  0  0  0
 12 37  1  0  0  0  0
 13 14  1  0  0  0  0
 13 38  1  0  0  0  0
 13 39  1  0  0  0  0
 14 15  1  0  0  0  0
 14 40  1  0  0  0  0
 14 41  1  0  0  0  0
 15 42  1  0  0  0  0
 15 43  1  0  0  0  0
 17 19  1  0  0  0  0
 18 20  2  0  0  0  0
 18 21  1  0  0  0  0
 19 25  2  0  0  0  0
 19 45  1  0  0  0  0
 20 23  1  0  0  0  0
 21 22  2  0  0  0  0
 21 46  1  0  0  0  0
 22 24  1  0  0  0  0
 22 26  1  0  0  0  0
 23 24  2  0  0  0  0
 23 47  1  0  0  0  0
 25 48  1  0  0  0  0
 25 49  1  0  0  0  0
 27 29  1  0  0  0  0
 27 50  1  0  0  0  0
 27 51  1  0  0  0  0
 28 53  1  0  0  0  0
 29 54  1  0  0  0  0
 29 55  1  0  0  0  0
 30 31  2  0  0  0  0
 30 32  1  0  0  0  0
 31 33  1  0  0  0  0
 32 34  2  0  0  0  0
 32 56  1  0  0  0  0
 33 35  2  0  0  0  0
 34 35  1  0  0  0  0
 34 57  1  0  0  0  0
 35 58  1  0  0  0  0
 36 59  1  0  0  0  0
 36 60  1  0  0  0  0
 36 61  1  0  0  0  0
M  END
> <PUBCHEM_COMPOUND_CID>
24883287

> <PUBCHEM_CONFORMER_RMSD>
1.2

> <PUBCHEM_CONFORMER_DIVERSEORDER>
1
5
16
2
6
11
10
8
3
13
17
12
18
15
9
4
14
7
19

> <PUBCHEM_MMFF94_PARTIAL_CHARGES>
44
1 -0.18
10 -0.6
11 -0.62
12 0.36
15 0.3
16 0.57
17 0.62
18 0.12
19 -0.14
2 -0.19
20 0.08
21 -0.15
23 -0.15
24 0.31
25 -0.3
26 0.41
27 0.28
28 0.47
29 0.28
3 -0.57
30 0.1
31 0.19
32 -0.15
33 0.18
34 -0.15
35 -0.15
36 0.28
4 -0.57
44 0.37
45 0.15
46 0.15
47 0.15
48 0.15
49 0.15
5 -0.36
52 0.4
53 0.15
56 0.15
57 0.15
58 0.15
6 -0.56
7 -0.66
8 -0.55
9 -0.62

> <PUBCHEM_EFFECTIVE_ROTOR_COUNT>
12

> <PUBCHEM_PHARMACOPHORE_FEATURES>
13
1 10 donor
1 25 hydrophobe
1 3 acceptor
1 4 acceptor
1 5 acceptor
1 6 acceptor
1 8 donor
3 10 11 26 cation
3 9 11 28 cation
5 7 12 13 14 15 rings
6 18 20 21 22 23 24 rings
6 30 31 32 33 34 35 rings
6 9 11 22 24 26 28 rings

> <PUBCHEM_HEAVY_ATOM_COUNT>
36

> <PUBCHEM_ATOM_DEF_STEREO_COUNT>
1

> <PUBCHEM_ATOM_UDEF_STEREO_COUNT>
0

> <PUBCHEM_BOND_DEF_STEREO_COUNT>
0

> <PUBCHEM_BOND_UDEF_STEREO_COUNT>
0

> <PUBCHEM_ISOTOPIC_ATOM_COUNT>
0

> <PUBCHEM_COMPONENT_COUNT>
1

> <PUBCHEM_CACTVS_TAUTO_COUNT>
6

> <PUBCHEM_CONFORMER_ID>
017BB05700000001

> <PUBCHEM_MMFF94_ENERGY>
126.2741

> <PUBCHEM_FEATURE_SELFOVERLAP>
66.147

> <PUBCHEM_SHAPE_FINGERPRINT>
102385 1 18338796715203659310
11059048 146 18341899567614283332
12788726 201 18192712478322493582
12925494 130 18339355241318711816
14028597 1 17241032306114509619
14040221 97 18260268585646133789
14394314 77 17831301966420958157
14849402 71 18052261691971725530
21033648 144 18192424165219615660
21033648 29 17390227022951257533
21796203 349 17250081458272531947
22122407 14 17335908885445409593
23398203 216 18198067980202053945
24771293 8 18269844284453682339
4394409 98 13657837577385865638
469060 322 18264221368480952337
59025328 239 10739583797450890633
6004065 56 17977102684954967795
653340 110 18411989056679968923
9961470 85 18195801873752234280

> <PUBCHEM_SHAPE_MULTIPOLES>
687.08
14.05
7.93
1.94
15.01
0.52
0.24
7.9
4.31
-7.21
1.52
-1.86
3.02
0.34

> <PUBCHEM_SHAPE_SELFOVERLAP>
1472.787

> <PUBCHEM_SHAPE_VOLUME>
380.4

> <PUBCHEM_COORDINATE_TYPE>
2
5
10

$$$$
