49830436
  -OEChem-10062121523D

 36 38  0     0  0  0  0  0  0999 V2000
   -3.5408   -0.8464    0.2390 O   0  0  0  0  0  0  0  0  0  0  0  0
    4.9976   -1.2581    0.0313 N   0  0  0  0  0  0  0  0  0  0  0  0
    5.0748    0.0444    0.3670 N   0  0  0  0  0  0  0  0  0  0  0  0
   -2.1972    2.4306   -0.6211 N   0  0  0  0  0  0  0  0  0  0  0  0
   -7.1750   -1.4635    0.2298 N   0  0  0  0  0  0  0  0  0  0  0  0
    2.9425   -0.6063   -0.0689 C   0  0  0  0  0  0  0  0  0  0  0  0
    1.0593    0.7198    0.0214 C   0  0  0  0  0  0  0  0  0  0  0  0
    3.8054    0.4853    0.3146 C   0  0  0  0  0  0  0  0  0  0  0  0
    1.5640   -0.5701   -0.2366 C   0  0  0  0  0  0  0  0  0  0  0  0
    3.7374   -1.7038   -0.2418 C   0  0  0  0  0  0  0  0  0  0  0  0
   -0.3702    0.9322   -0.1086 C   0  0  0  0  0  0  0  0  0  0  0  0
    1.8721    1.8331    0.4039 C   0  0  0  0  0  0  0  0  0  0  0  0
    3.2732    1.7634    0.5660 C   0  0  0  0  0  0  0  0  0  0  0  0
   -1.2731   -0.0963    0.1373 C   0  0  0  0  0  0  0  0  0  0  0  0
    3.4690   -3.0998   -0.6256 C   0  0  0  0  0  0  0  0  0  0  0  0
   -2.6374    0.1372    0.0046 C   0  0  0  0  0  0  0  0  0  0  0  0
   -0.8787    2.1661   -0.4816 C   0  0  0  0  0  0  0  0  0  0  0  0
   -4.9224   -0.5176    0.0784 C   0  0  0  0  0  0  0  0  0  0  0  0
   -3.0445    1.4065   -0.3737 C   0  0  0  0  0  0  0  0  0  0  0  0
   -5.7559   -1.7565    0.3645 C   0  0  0  0  0  0  0  0  0  0  0  0
    0.9791   -1.4226   -0.5517 H   0  0  0  0  0  0  0  0  0  0  0  0
    1.4238    2.8009    0.6271 H   0  0  0  0  0  0  0  0  0  0  0  0
    3.8692    2.6158    0.8641 H   0  0  0  0  0  0  0  0  0  0  0  0
    5.8585   -1.7901    0.0084 H   0  0  0  0  0  0  0  0  0  0  0  0
   -0.9550   -1.0835    0.4616 H   0  0  0  0  0  0  0  0  0  0  0  0
    3.0164   -3.1439   -1.6215 H   0  0  0  0  0  0  0  0  0  0  0  0
    4.3844   -3.7003   -0.6475 H   0  0  0  0  0  0  0  0  0  0  0  0
    2.7795   -3.5677    0.0845 H   0  0  0  0  0  0  0  0  0  0  0  0
   -0.2515    3.0168   -0.7280 H   0  0  0  0  0  0  0  0  0  0  0  0
   -5.2051    0.2721    0.7865 H   0  0  0  0  0  0  0  0  0  0  0  0
   -5.1157   -0.1948   -0.9529 H   0  0  0  0  0  0  0  0  0  0  0  0
   -4.0795    1.6990   -0.5052 H   0  0  0  0  0  0  0  0  0  0  0  0
   -5.4718   -2.5651   -0.3188 H   0  0  0  0  0  0  0  0  0  0  0  0
   -5.5476   -2.1194    1.3773 H   0  0  0  0  0  0  0  0  0  0  0  0
   -7.3751   -1.1595   -0.7223 H   0  0  0  0  0  0  0  0  0  0  0  0
   -7.7125   -2.3169    0.3758 H   0  0  0  0  0  0  0  0  0  0  0  0
  1 16  1  0  0  0  0
  1 18  1  0  0  0  0
  2  3  1  0  0  0  0
  2 10  1  0  0  0  0
  2 24  1  0  0  0  0
  3  8  2  0  0  0  0
  4 17  2  0  0  0  0
  4 19  1  0  0  0  0
  5 20  1  0  0  0  0
  5 35  1  0  0  0  0
  5 36  1  0  0  0  0
  6  8  1  0  0  0  0
  6  9  1  0  0  0  0
  6 10  2  0  0  0  0
  7  9  2  0  0  0  0
  7 11  1  0  0  0  0
  7 12  1  0  0  0  0
  8 13  1  0  0  0  0
  9 21  1  0  0  0  0
 10 15  1  0  0  0  0
 11 14  2  0  0  0  0
 11 17  1  0  0  0  0
 12 13  2  0  0  0  0
 12 22  1  0  0  0  0
 13 23  1  0  0  0  0
 14 16  1  0  0  0  0
 14 25  1  0  0  0  0
 15 26  1  0  0  0  0
 15 27  1  0  0  0  0
 15 28  1  0  0  0  0
 16 19  2  0  0  0  0
 17 29  1  0  0  0  0
 18 20  1  0  0  0  0
 18 30  1  0  0  0  0
 18 31  1  0  0  0  0
 19 32  1  0  0  0  0
 20 33  1  0  0  0  0
 20 34  1  0  0  0  0
M  END
> <PUBCHEM_COMPOUND_CID>
49830436

> <PUBCHEM_CONFORMER_RMSD>
0.6

> <PUBCHEM_CONFORMER_DIVERSEORDER>
2
23
19
26
12
8
17
13
10
15
22
33
16
7
29
24
21
4
28
30
25
3
1
9
20
6
34
27
18
14
32
5
11
31

> <PUBCHEM_MMFF94_PARTIAL_CHARGES>
26
1 -0.36
10 -0.33
12 -0.15
13 -0.15
14 -0.15
15 0.18
16 0.08
17 0.16
18 0.28
19 0.16
2 0.3
20 0.27
21 0.15
22 0.15
23 0.15
24 0.27
25 0.15
29 0.15
3 -0.71
32 0.15
35 0.36
36 0.36
4 -0.62
5 -0.99
8 0.29
9 -0.15

> <PUBCHEM_EFFECTIVE_ROTOR_COUNT>
4

> <PUBCHEM_PHARMACOPHORE_FEATURES>
9
1 1 acceptor
1 2 donor
1 3 acceptor
1 4 acceptor
1 5 cation
1 5 donor
5 2 3 6 8 10 rings
6 4 11 14 16 17 19 rings
6 6 7 8 9 12 13 rings

> <PUBCHEM_HEAVY_ATOM_COUNT>
20

> <PUBCHEM_ATOM_DEF_STEREO_COUNT>
0

> <PUBCHEM_ATOM_UDEF_STEREO_COUNT>
0

> <PUBCHEM_BOND_DEF_STEREO_COUNT>
0

> <PUBCHEM_BOND_UDEF_STEREO_COUNT>
0

> <PUBCHEM_ISOTOPIC_ATOM_COUNT>
0

> <PUBCHEM_COMPONENT_COUNT>
1

> <PUBCHEM_CACTVS_TAUTO_COUNT>
2

> <PUBCHEM_CONFORMER_ID>
02F85A2400000002

> <PUBCHEM_MMFF94_ENERGY>
62.4033

> <PUBCHEM_FEATURE_SELFOVERLAP>
45.803

> <PUBCHEM_SHAPE_FINGERPRINT>
108634 29 18114473317996724698
11963148 33 18336259154204817466
12107183 9 17769390326734899321
12403259 226 18337668612083471668
12596602 18 16486972955113852859
12623949 98 18202014208790724511
12916754 54 18411140208018080457
13402501 40 18408606980673057771
13533116 47 18202004365031143011
13544653 18 18409174320140571025
13551218 46 18343303669737967127
13685833 64 18335424603899448851
13955234 65 18200589340594947800
14617045 38 18341057392835382702
14866123 147 16615050293304205442
15196674 1 18410573950955476948
15352361 1 18408605881282281387
17492 89 18267584607168608462
1768 124 18130228259251233119
17859628 70 18272937102987337902
1813 80 17603586343988330173
19141452 34 18271806886849313871
193927 3 17968107434123936809
200 152 17917699176455168093
20028762 73 18201717375053622287
20261772 1 18131629010498137238
20281475 54 18338806606691890940
20403669 9 18408889533654703131
20645477 70 18409165523794354210
21197605 99 18126570248026167727
21267235 1 18342181051180461006
21279426 13 18334851672568333493
221490 88 18339923710753280444
23402539 116 18334289864780859093
23522609 53 18122097305643143332
23557571 272 17967808340875386773
23559900 14 18337664222611038404
239999 70 18114460158173932464
2871803 45 18186798084711530379
3004659 81 17894348908171621711
3014063 24 18200870781961051607
314194 84 18270680999732206639
33382 64 18343304764463718555
33824 294 18412542115951480922
3421961 26 18340206405258473945
4214541 1 18338796706491729665
465052 167 18343869934714875735
5104073 3 18271518694010788624
5718773 13 18262513689759278690
59755656 215 18113612375054648171
9709674 26 18336268959624826754

> <PUBCHEM_SHAPE_MULTIPOLES>
385.8
13.03
2.68
0.71
15.63
0.53
-0.02
9.22
1.59
-0.79
-0.39
-0.05
-0.05
1.33

> <PUBCHEM_SHAPE_SELFOVERLAP>
843.195

> <PUBCHEM_SHAPE_VOLUME>
210.2

> <PUBCHEM_COORDINATE_TYPE>
2
5
10

$$$$
