16050453
  -OEChem-10062121543D

 50 53  0     0  0  0  0  0  0999 V2000
    0.2901   -1.5312   -2.1067 F   0  0  0  0  0  0  0  0  0  0  0  0
    0.8090   -5.8321   -0.2109 F   0  0  0  0  0  0  0  0  0  0  0  0
   -5.7013    1.9630   -0.6203 O   0  0  0  0  0  0  0  0  0  0  0  0
    1.7922    1.7572    0.2763 N   0  0  0  0  0  0  0  0  0  0  0  0
   -3.5451    0.5796    0.6528 N   0  0  0  0  0  0  0  0  0  0  0  0
    2.9826    0.1829   -0.7658 N   0  0  0  0  0  0  0  0  0  0  0  0
   -1.1990    0.5754    0.6172 N   0  0  0  0  0  0  0  0  0  0  0  0
    3.5148    3.7746   -0.5723 N   0  0  0  0  0  0  0  0  0  0  0  0
   -2.4057    0.2684    2.6804 N   0  0  0  0  0  0  0  0  0  0  0  0
   -5.0589    0.8487   -1.2450 C   0  0  0  0  0  0  0  0  0  0  0  0
   -3.6062    0.7918   -0.7485 C   0  0  0  0  0  0  0  0  0  0  0  0
    1.1485    0.5792    0.5284 C   0  0  0  0  0  0  0  0  0  0  0  0
    1.9008   -0.3756   -0.1241 C   0  0  0  0  0  0  0  0  0  0  0  0
    2.8838    1.4642   -0.5027 C   0  0  0  0  0  0  0  0  0  0  0  0
   -5.0746    1.0894   -2.7579 C   0  0  0  0  0  0  0  0  0  0  0  0
   -5.8416   -0.4236   -0.9091 C   0  0  0  0  0  0  0  0  0  0  0  0
   -0.0554    0.4644    1.3196 C   0  0  0  0  0  0  0  0  0  0  0  0
    1.6184   -1.7798   -0.1495 C   0  0  0  0  0  0  0  0  0  0  0  0
    3.7534    2.5372   -0.9225 C   0  0  0  0  0  0  0  0  0  0  0  0
   -2.3230    0.4690    1.3513 C   0  0  0  0  0  0  0  0  0  0  0  0
    1.5424    3.0652    0.6450 C   0  0  0  0  0  0  0  0  0  0  0  0
    0.0014    0.2585    2.6794 C   0  0  0  0  0  0  0  0  0  0  0  0
    2.3966    4.0140    0.2163 C   0  0  0  0  0  0  0  0  0  0  0  0
    0.8114   -2.3183   -1.1541 C   0  0  0  0  0  0  0  0  0  0  0  0
    2.1509   -2.6159    0.8345 C   0  0  0  0  0  0  0  0  0  0  0  0
    4.9464    2.2146   -1.7757 C   0  0  0  0  0  0  0  0  0  0  0  0
   -1.2197    0.1673    3.3158 C   0  0  0  0  0  0  0  0  0  0  0  0
    0.5384   -3.6860   -1.1748 C   0  0  0  0  0  0  0  0  0  0  0  0
    1.8779   -3.9834    0.8138 C   0  0  0  0  0  0  0  0  0  0  0  0
    1.0715   -4.5186   -0.1908 C   0  0  0  0  0  0  0  0  0  0  0  0
   -3.1045    1.7375   -0.9917 H   0  0  0  0  0  0  0  0  0  0  0  0
   -3.0755   -0.0113   -1.2758 H   0  0  0  0  0  0  0  0  0  0  0  0
   -4.5491    2.0164   -3.0145 H   0  0  0  0  0  0  0  0  0  0  0  0
   -4.6055    0.2635   -3.3026 H   0  0  0  0  0  0  0  0  0  0  0  0
   -6.1016    1.2070   -3.1224 H   0  0  0  0  0  0  0  0  0  0  0  0
   -5.9607   -0.5561    0.1712 H   0  0  0  0  0  0  0  0  0  0  0  0
   -6.8582   -0.3673   -1.3157 H   0  0  0  0  0  0  0  0  0  0  0  0
   -5.3562   -1.3144   -1.3208 H   0  0  0  0  0  0  0  0  0  0  0  0
   -4.3857    0.5584    1.2179 H   0  0  0  0  0  0  0  0  0  0  0  0
    0.6779    3.2829    1.2589 H   0  0  0  0  0  0  0  0  0  0  0  0
   -5.2047    2.7666   -0.8510 H   0  0  0  0  0  0  0  0  0  0  0  0
    0.9317    0.1715    3.2264 H   0  0  0  0  0  0  0  0  0  0  0  0
    2.2323    5.0519    0.4857 H   0  0  0  0  0  0  0  0  0  0  0  0
    2.7813   -2.2151    1.6250 H   0  0  0  0  0  0  0  0  0  0  0  0
    5.6021    1.5197   -1.2432 H   0  0  0  0  0  0  0  0  0  0  0  0
    5.5071    3.1236   -2.0102 H   0  0  0  0  0  0  0  0  0  0  0  0
    4.6158    1.7500   -2.7091 H   0  0  0  0  0  0  0  0  0  0  0  0
   -1.2801    0.0054    4.3868 H   0  0  0  0  0  0  0  0  0  0  0  0
   -0.0897   -4.1026   -1.9565 H   0  0  0  0  0  0  0  0  0  0  0  0
    2.2926   -4.6321    1.5797 H   0  0  0  0  0  0  0  0  0  0  0  0
  1 24  1  0  0  0  0
  2 30  1  0  0  0  0
  3 10  1  0  0  0  0
  3 41  1  0  0  0  0
  4 12  1  0  0  0  0
  4 14  1  0  0  0  0
  4 21  1  0  0  0  0
  5 11  1  0  0  0  0
  5 20  1  0  0  0  0
  5 39  1  0  0  0  0
  6 13  1  0  0  0  0
  6 14  2  0  0  0  0
  7 17  2  0  0  0  0
  7 20  1  0  0  0  0
  8 19  2  0  0  0  0
  8 23  1  0  0  0  0
  9 20  2  0  0  0  0
  9 27  1  0  0  0  0
 10 11  1  0  0  0  0
 10 15  1  0  0  0  0
 10 16  1  0  0  0  0
 11 31  1  0  0  0  0
 11 32  1  0  0  0  0
 12 13  2  0  0  0  0
 12 17  1  0  0  0  0
 13 18  1  0  0  0  0
 14 19  1  0  0  0  0
 15 33  1  0  0  0  0
 15 34  1  0  0  0  0
 15 35  1  0  0  0  0
 16 36  1  0  0  0  0
 16 37  1  0  0  0  0
 16 38  1  0  0  0  0
 17 22  1  0  0  0  0
 18 24  2  0  0  0  0
 18 25  1  0  0  0  0
 19 26  1  0  0  0  0
 21 23  2  0  0  0  0
 21 40  1  0  0  0  0
 22 27  2  0  0  0  0
 22 42  1  0  0  0  0
 23 43  1  0  0  0  0
 24 28  1  0  0  0  0
 25 29  2  0  0  0  0
 25 44  1  0  0  0  0
 26 45  1  0  0  0  0
 26 46  1  0  0  0  0
 26 47  1  0  0  0  0
 27 48  1  0  0  0  0
 28 30  2  0  0  0  0
 28 49  1  0  0  0  0
 29 30  1  0  0  0  0
 29 50  1  0  0  0  0
M  END
> <PUBCHEM_COMPOUND_CID>
16050453

> <PUBCHEM_CONFORMER_RMSD>
0.8

> <PUBCHEM_CONFORMER_DIVERSEORDER>
1
110
122
9
6
85
99
106
75
20
25
53
5
58
18
46
103
14
44
45
87
78
82
98
52
19
13
108
40
32
21
55
65
88
54
117
12
56
97
51
113
77
57
30
26
41
31
23
94
111
102
22
107
119
33
89
101
92
70
112
35
83
42
47
100
69
80
84
73
37
118
74
48
43
90
62
120
79
28
86
11
105
71
63
36
76
60
116
115
61
93
81
16
72
121
7
50
24
59
27
114
96
39
29
66
49
104
34
109
15
91
68
38
95
17
64
2
10
8
4
67
3

> <PUBCHEM_MMFF94_PARTIAL_CHARGES>
37
1 -0.19
10 0.28
11 0.37
12 -0.2
13 0.17
14 0.1
17 0.36
18 0.05
19 0.47
2 -0.19
20 0.72
21 -0.18
22 -0.15
23 0.02
24 0.19
25 -0.15
26 0.06
27 0.16
28 -0.15
29 -0.15
3 -0.68
30 0.19
39 0.4
4 0.33
40 0.15
41 0.4
42 0.15
43 0.15
44 0.15
48 0.15
49 0.15
5 -0.87
50 0.15
6 -0.57
7 -0.62
8 -0.62
9 -0.62

> <PUBCHEM_EFFECTIVE_ROTOR_COUNT>
5

> <PUBCHEM_PHARMACOPHORE_FEATURES>
12
1 3 acceptor
1 3 donor
1 5 donor
1 7 acceptor
1 8 acceptor
3 10 15 16 hydrophobe
3 4 6 14 cation
4 5 7 9 20 cation
5 4 6 12 13 14 rings
6 18 24 25 28 29 30 rings
6 4 8 14 19 21 23 rings
6 7 9 17 20 22 27 rings

> <PUBCHEM_HEAVY_ATOM_COUNT>
30

> <PUBCHEM_ATOM_DEF_STEREO_COUNT>
0

> <PUBCHEM_ATOM_UDEF_STEREO_COUNT>
0

> <PUBCHEM_BOND_DEF_STEREO_COUNT>
0

> <PUBCHEM_BOND_UDEF_STEREO_COUNT>
0

> <PUBCHEM_ISOTOPIC_ATOM_COUNT>
0

> <PUBCHEM_COMPONENT_COUNT>
1

> <PUBCHEM_CACTVS_TAUTO_COUNT>
3

> <PUBCHEM_CONFORMER_ID>
00F4E91500000001

> <PUBCHEM_MMFF94_ENERGY>
87.2227

> <PUBCHEM_FEATURE_SELFOVERLAP>
61.017

> <PUBCHEM_SHAPE_FINGERPRINT>
10764073 3 16443607027345996618
10930396 42 17828168093017653506
11227688 84 17763218784700831006
11578080 2 17314254222482683739
11582403 64 17822840004716604009
11720765 8 17978207384396250485
11725454 13 17822283639053776025
11991303 11 17974870658874444222
12160290 23 17554329498679684722
133893 2 18197796417724635899
13911987 19 18265353856905316532
14856354 85 14901981537703248630
15324884 4 17825978036930952296
15842332 3 17773049552982587153
17138139 8 17559943502003542567
18603816 31 12673624669158069420
20505436 4 16984106017979261897
20626108 58 17911782597323049171
21304303 282 17619597599810382392
238 59 18411423920667237281
312425 83 18189887618497927845
3380486 145 17333663678553112618
376196 1 17968089871723842241
44802255 64 17535503575301300092
46194498 28 18189044305816366061
5223283 242 17687171008106328765
550186 7 17460880841525206419
59025328 239 17836347273257137959
5951187 136 17317857211230575541
613672 6 17831022325580692147
6677587 24 17611977808241933037

> <PUBCHEM_SHAPE_MULTIPOLES>
567.08
9.13
5.96
2.45
14.95
7.66
1.37
-9.01
-6.75
-7.37
-1.42
1.99
-0.43
-0.37

> <PUBCHEM_SHAPE_SELFOVERLAP>
1247.56

> <PUBCHEM_SHAPE_VOLUME>
308.5

> <PUBCHEM_COORDINATE_TYPE>
2
5
10

$$$$
