49830965
  -OEChem-10062121533D

 36 38  0     0  0  0  0  0  0999 V2000
    6.3555   -1.7958   -0.7977 O   0  0  0  0  0  0  0  0  0  0  0  0
    4.1699   -0.2821    0.1860 N   0  0  0  0  0  0  0  0  0  0  0  0
    3.0207    1.7971    0.0365 N   0  0  0  0  0  0  0  0  0  0  0  0
    0.5655    0.4190    0.0471 C   0  0  0  0  0  0  0  0  0  0  0  0
    0.5899    1.8267   -0.0323 C   0  0  0  0  0  0  0  0  0  0  0  0
   -1.8651    0.4780   -0.0234 C   0  0  0  0  0  0  0  0  0  0  0  0
   -0.6726   -0.2441    0.0506 C   0  0  0  0  0  0  0  0  0  0  0  0
    1.7781   -0.2765    0.1199 C   0  0  0  0  0  0  0  0  0  0  0  0
   -0.6162    2.5432   -0.1066 C   0  0  0  0  0  0  0  0  0  0  0  0
   -3.1331   -0.2189   -0.0195 C   0  0  0  0  0  0  0  0  0  0  0  0
   -1.8368    1.8684   -0.1017 C   0  0  0  0  0  0  0  0  0  0  0  0
    2.9587    0.4505    0.1113 C   0  0  0  0  0  0  0  0  0  0  0  0
    1.8390    2.4506   -0.0334 C   0  0  0  0  0  0  0  0  0  0  0  0
    4.2044   -1.7058    0.2673 C   0  0  0  0  0  0  0  0  0  0  0  0
   -3.7782   -0.4860    1.1880 C   0  0  0  0  0  0  0  0  0  0  0  0
   -3.7104   -0.6235   -1.2230 C   0  0  0  0  0  0  0  0  0  0  0  0
    5.6423   -2.1858    0.3692 C   0  0  0  0  0  0  0  0  0  0  0  0
   -5.0006   -1.1577    1.1922 C   0  0  0  0  0  0  0  0  0  0  0  0
   -4.9329   -1.2953   -1.2190 C   0  0  0  0  0  0  0  0  0  0  0  0
   -5.5779   -1.5624   -0.0114 C   0  0  0  0  0  0  0  0  0  0  0  0
   -0.7014   -1.3314    0.1114 H   0  0  0  0  0  0  0  0  0  0  0  0
    1.7474   -1.3594    0.1787 H   0  0  0  0  0  0  0  0  0  0  0  0
   -0.6121    3.6290   -0.1684 H   0  0  0  0  0  0  0  0  0  0  0  0
   -2.7577    2.4442   -0.1600 H   0  0  0  0  0  0  0  0  0  0  0  0
    1.9287    3.5319   -0.0926 H   0  0  0  0  0  0  0  0  0  0  0  0
    5.0266    0.2594    0.1752 H   0  0  0  0  0  0  0  0  0  0  0  0
    3.7564   -2.1451   -0.6322 H   0  0  0  0  0  0  0  0  0  0  0  0
    3.6642   -2.0646    1.1510 H   0  0  0  0  0  0  0  0  0  0  0  0
   -3.3420   -0.1776    2.1353 H   0  0  0  0  0  0  0  0  0  0  0  0
   -3.2210   -0.4233   -2.1733 H   0  0  0  0  0  0  0  0  0  0  0  0
    5.6746   -3.2770    0.4473 H   0  0  0  0  0  0  0  0  0  0  0  0
    6.1427   -1.7526    1.2417 H   0  0  0  0  0  0  0  0  0  0  0  0
   -5.5030   -1.3658    2.1323 H   0  0  0  0  0  0  0  0  0  0  0  0
   -5.3826   -1.6104   -2.1561 H   0  0  0  0  0  0  0  0  0  0  0  0
   -6.5298   -2.0855   -0.0084 H   0  0  0  0  0  0  0  0  0  0  0  0
    7.2656   -2.1233   -0.6980 H   0  0  0  0  0  0  0  0  0  0  0  0
  1 17  1  0  0  0  0
  1 36  1  0  0  0  0
  2 12  1  0  0  0  0
  2 14  1  0  0  0  0
  2 26  1  0  0  0  0
  3 12  2  0  0  0  0
  3 13  1  0  0  0  0
  4  5  1  0  0  0  0
  4  7  1  0  0  0  0
  4  8  2  0  0  0  0
  5  9  1  0  0  0  0
  5 13  2  0  0  0  0
  6  7  2  0  0  0  0
  6 10  1  0  0  0  0
  6 11  1  0  0  0  0
  7 21  1  0  0  0  0
  8 12  1  0  0  0  0
  8 22  1  0  0  0  0
  9 11  2  0  0  0  0
  9 23  1  0  0  0  0
 10 15  2  0  0  0  0
 10 16  1  0  0  0  0
 11 24  1  0  0  0  0
 13 25  1  0  0  0  0
 14 17  1  0  0  0  0
 14 27  1  0  0  0  0
 14 28  1  0  0  0  0
 15 18  1  0  0  0  0
 15 29  1  0  0  0  0
 16 19  2  0  0  0  0
 16 30  1  0  0  0  0
 17 31  1  0  0  0  0
 17 32  1  0  0  0  0
 18 20  2  0  0  0  0
 18 33  1  0  0  0  0
 19 20  1  0  0  0  0
 19 34  1  0  0  0  0
 20 35  1  0  0  0  0
M  END
> <PUBCHEM_COMPOUND_CID>
49830965

> <PUBCHEM_CONFORMER_RMSD>
0.6

> <PUBCHEM_CONFORMER_DIVERSEORDER>
2
16
11
7
13
17
10
6
8
9
12
5
15
4
14
3
1

> <PUBCHEM_MMFF94_PARTIAL_CHARGES>
28
1 -0.68
11 -0.15
12 0.41
13 0.16
14 0.37
15 -0.15
16 -0.15
17 0.28
18 -0.15
19 -0.15
2 -0.87
20 -0.15
21 0.15
22 0.15
23 0.15
24 0.15
25 0.15
26 0.4
29 0.15
3 -0.62
30 0.15
33 0.15
34 0.15
35 0.15
36 0.4
7 -0.15
8 -0.15
9 -0.15

> <PUBCHEM_EFFECTIVE_ROTOR_COUNT>
4

> <PUBCHEM_PHARMACOPHORE_FEATURES>
7
1 1 acceptor
1 1 donor
1 2 donor
3 2 3 12 cation
6 10 15 16 18 19 20 rings
6 3 4 5 8 12 13 rings
6 4 5 6 7 9 11 rings

> <PUBCHEM_HEAVY_ATOM_COUNT>
20

> <PUBCHEM_ATOM_DEF_STEREO_COUNT>
0

> <PUBCHEM_ATOM_UDEF_STEREO_COUNT>
0

> <PUBCHEM_BOND_DEF_STEREO_COUNT>
0

> <PUBCHEM_BOND_UDEF_STEREO_COUNT>
0

> <PUBCHEM_ISOTOPIC_ATOM_COUNT>
0

> <PUBCHEM_COMPONENT_COUNT>
1

> <PUBCHEM_CACTVS_TAUTO_COUNT>
3

> <PUBCHEM_CONFORMER_ID>
02F85C3500000002

> <PUBCHEM_MMFF94_ENERGY>
67.3534

> <PUBCHEM_FEATURE_SELFOVERLAP>
35.55

> <PUBCHEM_SHAPE_FINGERPRINT>
10 15 12391503213452443014
10319926 262 15195298524657129735
10411042 1 18410292493359089056
11796584 16 17458614662197872795
11809386 21 18042960974451470730
12032990 46 18335421270181894208
12107183 9 18198917920139271513
12236239 1 17917152827357031955
12403259 118 13470681577344117059
12596602 18 16988839488699279554
12633257 1 16271921648984718083
12760667 363 18410856542634305651
12892183 10 14907910348795399903
12916754 54 18410575071936906928
13009979 54 18202010893276412296
13288520 33 18410576145525275789
13533116 47 18271242836666528449
13540713 4 18266719356153334072
13540713 5 18339100223378305704
13544653 18 18408041836006717653
13583140 156 15338830907282937483
13675066 3 12895080647338890913
13740256 8 18408609145336074682
13862211 1 18411697686104188214
13955234 65 18197214965400847880
14123256 34 18412551989886401454
14178342 30 17773891791315389864
1420 369 18412543206403610658
14251732 14 14635158962275770451
14508225 48 18187359913415360940
14739800 52 16414344766096502880
14767858 380 18187942672796635758
15188451 53 16773503465383755959
15196674 1 18410009935697451768
17780758 139 17775286010845828891
17870717 6 17022901264095909683
1813 80 18341907306733680293
18222031 100 18411689981307015922
193927 3 18335423456541566690
19784866 140 18186517687518488011
19784866 240 18411422804002029415
200 152 18341609365242493001
20028762 73 18130783481820160318
20645477 70 18260822756369545945
21033650 10 16009302115817436581
21267235 1 18410299107255336010
21279426 13 18187917370759257221
21682296 61 18341054033891551111
221490 88 18335419062816773228
22182313 1 18190436390078963788
23175994 123 18040996289270688909
23402539 116 18411134701838040039
23522609 53 18052855569837790464
23559900 14 17895474829315982528
25147074 1 18339660969981595760
2838139 119 11746938694108747262
2871803 45 18040991851825543745
2916195 48 11384119639625082603
3004659 81 18040431092384694386
3014063 24 18059564819839017599
312423 11 18336274487031595212
314194 84 18340206383509161874
335352 9 18337953377374448493
3421961 26 18411417349631154984
34797466 226 16298954280883817895
351380 3 18413388726640392230
465052 167 18341619251629727566
5104073 3 18342734071085345592
559249 180 18342174428483198327
59682541 35 18342164593525192482
76465 3 18412541003090513180
77188 2 18411418427568453268
7970288 3 18411133640876506375
8863177 126 18042135421529224571

> <PUBCHEM_SHAPE_MULTIPOLES>
395.76
13.07
2.61
0.94
5.45
0.98
-0.02
-12.99
-0.47
2.35
-0.07
-1.1
-0.32
0.05

> <PUBCHEM_SHAPE_SELFOVERLAP>
866.629

> <PUBCHEM_SHAPE_VOLUME>
214.4

> <PUBCHEM_COORDINATE_TYPE>
2
5
10

$$$$
