49830409
  -OEChem-10052120443D

 72 78  0     0  0  0  0  0  0999 V2000
   -0.6149   -2.7991   -4.4525 Cl  0  0  0  0  0  0  0  0  0  0  0  0
    4.3256   -2.1796    3.7700 S   0  0  0  0  0  0  0  0  0  0  0  0
   -2.3544    0.7895    3.9421 O   0  0  0  0  0  0  0  0  0  0  0  0
   -1.9185   -2.2407    0.7159 O   0  0  0  0  0  0  0  0  0  0  0  0
   -1.7884    1.7721    1.3703 N   0  0  0  0  0  0  0  0  0  0  0  0
    4.0775   -0.6622    1.7175 N   0  0  0  0  0  0  0  0  0  0  0  0
    1.6485    3.1984   -1.7388 N   0  0  0  0  0  0  0  0  0  0  0  0
    2.8189   -2.4824    1.4124 N   0  0  0  0  0  0  0  0  0  0  0  0
    2.5948    1.3637   -0.6300 N   0  0  0  0  0  0  0  0  0  0  0  0
   -1.6332   -2.5337   -1.6003 N   0  0  0  0  0  0  0  0  0  0  0  0
    3.9607    2.8668   -1.9272 N   0  0  0  0  0  0  0  0  0  0  0  0
   -2.5703    2.5781    2.3181 C   0  0  0  0  0  0  0  0  0  0  0  0
   -0.9284    0.7516    1.9795 C   0  0  0  0  0  0  0  0  0  0  0  0
   -3.2866    1.6623    3.3042 C   0  0  0  0  0  0  0  0  0  0  0  0
   -1.7319   -0.0664    2.9845 C   0  0  0  0  0  0  0  0  0  0  0  0
   -1.4242    2.3544    0.1519 C   0  0  0  0  0  0  0  0  0  0  0  0
   -0.0767    2.4853   -0.1837 C   0  0  0  0  0  0  0  0  0  0  0  0
   -2.4091    2.8042   -0.7276 C   0  0  0  0  0  0  0  0  0  0  0  0
    3.4959   -0.4885    0.4991 C   0  0  0  0  0  0  0  0  0  0  0  0
    0.2861    3.0659   -1.3989 C   0  0  0  0  0  0  0  0  0  0  0  0
    2.7223   -1.6257    0.3314 C   0  0  0  0  0  0  0  0  0  0  0  0
   -2.0462    3.3850   -1.9427 C   0  0  0  0  0  0  0  0  0  0  0  0
    1.9091   -1.9086   -0.8140 C   0  0  0  0  0  0  0  0  0  0  0  0
    3.6407   -1.8551    2.2072 C   0  0  0  0  0  0  0  0  0  0  0  0
   -0.6987    3.5160   -2.2783 C   0  0  0  0  0  0  0  0  0  0  0  0
    3.7090    0.6597   -0.3411 C   0  0  0  0  0  0  0  0  0  0  0  0
    4.9463    0.0304    2.5268 C   0  0  0  0  0  0  0  0  0  0  0  0
    2.7902    2.4393   -1.4163 C   0  0  0  0  0  0  0  0  0  0  0  0
    0.5334   -2.0859   -0.6667 C   0  0  0  0  0  0  0  0  0  0  0  0
    2.4937   -2.0067   -2.0766 C   0  0  0  0  0  0  0  0  0  0  0  0
   -0.2577   -2.3610   -1.7820 C   0  0  0  0  0  0  0  0  0  0  0  0
    4.9668    0.9920   -0.8018 C   0  0  0  0  0  0  0  0  0  0  0  0
    5.1907   -0.6354    3.6683 C   0  0  0  0  0  0  0  0  0  0  0  0
    1.7027   -2.2820   -3.1919 C   0  0  0  0  0  0  0  0  0  0  0  0
    0.3270   -2.4591   -3.0447 C   0  0  0  0  0  0  0  0  0  0  0  0
    5.0329    2.1167   -1.5987 C   0  0  0  0  0  0  0  0  0  0  0  0
   -3.8430   -2.7164   -0.6555 C   0  0  0  0  0  0  0  0  0  0  0  0
   -2.3643   -2.4661   -0.4046 C   0  0  0  0  0  0  0  0  0  0  0  0
   -4.7231   -1.5639   -0.2479 C   0  0  0  0  0  0  0  0  0  0  0  0
   -5.2382   -1.5028    1.0469 C   0  0  0  0  0  0  0  0  0  0  0  0
   -5.0229   -0.5572   -1.1658 C   0  0  0  0  0  0  0  0  0  0  0  0
   -6.0528   -0.4351    1.4241 C   0  0  0  0  0  0  0  0  0  0  0  0
   -5.8373    0.5106   -0.7887 C   0  0  0  0  0  0  0  0  0  0  0  0
   -6.3524    0.5714    0.5062 C   0  0  0  0  0  0  0  0  0  0  0  0
   -3.3154    3.2036    1.8146 H   0  0  0  0  0  0  0  0  0  0  0  0
   -1.8843    3.2420    2.8586 H   0  0  0  0  0  0  0  0  0  0  0  0
   -0.0988    1.2447    2.5014 H   0  0  0  0  0  0  0  0  0  0  0  0
   -0.5127    0.0808    1.2224 H   0  0  0  0  0  0  0  0  0  0  0  0
   -3.7736    2.2596    4.0815 H   0  0  0  0  0  0  0  0  0  0  0  0
   -4.0605    1.0690    2.8091 H   0  0  0  0  0  0  0  0  0  0  0  0
   -2.5095   -0.6606    2.4959 H   0  0  0  0  0  0  0  0  0  0  0  0
   -1.0719   -0.7543    3.5221 H   0  0  0  0  0  0  0  0  0  0  0  0
    0.6823    2.1907    0.5328 H   0  0  0  0  0  0  0  0  0  0  0  0
   -3.4642    2.7009   -0.4893 H   0  0  0  0  0  0  0  0  0  0  0  0
   -2.8131    3.7323   -2.6289 H   0  0  0  0  0  0  0  0  0  0  0  0
   -0.4292    3.9689   -3.2291 H   0  0  0  0  0  0  0  0  0  0  0  0
    1.8381    3.9100   -2.4382 H   0  0  0  0  0  0  0  0  0  0  0  0
    5.3524    0.9882    2.2397 H   0  0  0  0  0  0  0  0  0  0  0  0
    0.1514   -2.0071    0.3401 H   0  0  0  0  0  0  0  0  0  0  0  0
    3.5652   -1.8809   -2.2133 H   0  0  0  0  0  0  0  0  0  0  0  0
    5.8541    0.4166   -0.5686 H   0  0  0  0  0  0  0  0  0  0  0  0
    5.8392   -0.2944    4.4628 H   0  0  0  0  0  0  0  0  0  0  0  0
    2.1742   -2.3568   -4.1686 H   0  0  0  0  0  0  0  0  0  0  0  0
    5.9785    2.4552   -2.0087 H   0  0  0  0  0  0  0  0  0  0  0  0
   -2.1489   -2.7290   -2.4553 H   0  0  0  0  0  0  0  0  0  0  0  0
   -4.0393   -2.9671   -1.7048 H   0  0  0  0  0  0  0  0  0  0  0  0
   -4.1192   -3.6160   -0.0902 H   0  0  0  0  0  0  0  0  0  0  0  0
   -5.0093   -2.2791    1.7723 H   0  0  0  0  0  0  0  0  0  0  0  0
   -4.6245   -0.5922   -2.1763 H   0  0  0  0  0  0  0  0  0  0  0  0
   -6.4522   -0.3867    2.4328 H   0  0  0  0  0  0  0  0  0  0  0  0
   -6.0684    1.2958   -1.5025 H   0  0  0  0  0  0  0  0  0  0  0  0
   -6.9849    1.4038    0.8004 H   0  0  0  0  0  0  0  0  0  0  0  0
  1 35  1  0  0  0  0
  2 24  1  0  0  0  0
  2 33  1  0  0  0  0
  3 14  1  0  0  0  0
  3 15  1  0  0  0  0
  4 38  2  0  0  0  0
  5 12  1  0  0  0  0
  5 13  1  0  0  0  0
  5 16  1  0  0  0  0
  6 19  1  0  0  0  0
  6 24  1  0  0  0  0
  6 27  1  0  0  0  0
  7 20  1  0  0  0  0
  7 28  1  0  0  0  0
  7 57  1  0  0  0  0
  8 21  1  0  0  0  0
  8 24  2  0  0  0  0
  9 26  2  0  0  0  0
  9 28  1  0  0  0  0
 10 31  1  0  0  0  0
 10 38  1  0  0  0  0
 10 65  1  0  0  0  0
 11 28  2  0  0  0  0
 11 36  1  0  0  0  0
 12 14  1  0  0  0  0
 12 45  1  0  0  0  0
 12 46  1  0  0  0  0
 13 15  1  0  0  0  0
 13 47  1  0  0  0  0
 13 48  1  0  0  0  0
 14 49  1  0  0  0  0
 14 50  1  0  0  0  0
 15 51  1  0  0  0  0
 15 52  1  0  0  0  0
 16 17  1  0  0  0  0
 16 18  2  0  0  0  0
 17 20  2  0  0  0  0
 17 53  1  0  0  0  0
 18 22  1  0  0  0  0
 18 54  1  0  0  0  0
 19 21  2  0  0  0  0
 19 26  1  0  0  0  0
 20 25  1  0  0  0  0
 21 23  1  0  0  0  0
 22 25  2  0  0  0  0
 22 55  1  0  0  0  0
 23 29  2  0  0  0  0
 23 30  1  0  0  0  0
 25 56  1  0  0  0  0
 26 32  1  0  0  0  0
 27 33  2  0  0  0  0
 27 58  1  0  0  0  0
 29 31  1  0  0  0  0
 29 59  1  0  0  0  0
 30 34  2  0  0  0  0
 30 60  1  0  0  0  0
 31 35  2  0  0  0  0
 32 36  2  0  0  0  0
 32 61  1  0  0  0  0
 33 62  1  0  0  0  0
 34 35  1  0  0  0  0
 34 63  1  0  0  0  0
 36 64  1  0  0  0  0
 37 38  1  0  0  0  0
 37 39  1  0  0  0  0
 37 66  1  0  0  0  0
 37 67  1  0  0  0  0
 39 40  2  0  0  0  0
 39 41  1  0  0  0  0
 40 42  1  0  0  0  0
 40 68  1  0  0  0  0
 41 43  2  0  0  0  0
 41 69  1  0  0  0  0
 42 44  2  0  0  0  0
 42 70  1  0  0  0  0
 43 44  1  0  0  0  0
 43 71  1  0  0  0  0
 44 72  1  0  0  0  0
M  END
> <PUBCHEM_COMPOUND_CID>
49830409

> <PUBCHEM_CONFORMER_RMSD>
1.4

> <PUBCHEM_CONFORMER_DIVERSEORDER>
1
76
49
47
7
130
129
166
203
91
31
63
69
153
223
212
187
200
176
66
14
135
215
128
112
189
107
207
125
104
127
90
169
37
126
204
61
96
44
72
202
177
198
99
103
154
213
151
147
148
16
152
82
10
140
30
98
108
183
117
115
205
17
83
123
184
134
174
59
119
199
218
216
231
172
163
70
232
101
224
190
180
78
4
144
225
32
156
93
192
51
74
60
197
67
158
121
9
226
116
43
85
150
210
110
65
36
206
94
40
209
75
173
185
132
97
221
165
222
89
33
141
100
196
79
35
157
34
39
12
170
106
13
114
164
88
131
136
167
159
188
102
86
179
92
124
137
194
208
87
139
64
201
191
73
171
230
133
48
178
219
68
62
22
56
143
162
228
20
229
2
46
26
160
84
3
54
138
15
118
186
120
181
11
80
58
27
71
193
214
195
142
227
122
109
45
95
42
52
77
113
41
155
217
57
29
81
38
5
21
145
211
182
18
149
53
146
8
23
28
24
175
55
168
50
105
111
19
6
25
220
161

> <PUBCHEM_MMFF94_PARTIAL_CHARGES>
62
1 -0.18
10 -0.55
11 -0.62
12 0.37
13 0.37
14 0.28
15 0.28
16 0.1
17 -0.15
18 -0.15
19 -0.2
2 -0.16
20 0.1
21 0.17
22 -0.15
23 0.05
24 0.24
25 -0.15
26 0.36
27 -0.18
28 0.72
29 -0.15
3 -0.56
30 -0.15
31 0.12
32 -0.15
33 -0.05
34 -0.15
35 0.18
36 0.16
37 0.2
38 0.57
39 -0.14
4 -0.57
40 -0.15
41 -0.15
42 -0.15
43 -0.15
44 -0.15
5 -0.84
53 0.15
54 0.15
55 0.15
56 0.15
57 0.4
58 0.15
59 0.15
6 0.33
60 0.15
61 0.15
62 0.15
63 0.15
64 0.15
65 0.37
68 0.15
69 0.15
7 -0.6
70 0.15
71 0.15
72 0.15
8 -0.57
9 -0.62

> <PUBCHEM_EFFECTIVE_ROTOR_COUNT>
10.2

> <PUBCHEM_PHARMACOPHORE_FEATURES>
15
1 10 donor
1 3 acceptor
1 4 acceptor
1 5 cation
1 7 donor
1 9 acceptor
3 6 8 24 cation
4 7 9 11 28 cation
5 2 6 24 27 33 rings
5 6 8 19 21 24 rings
6 16 17 18 20 22 25 rings
6 23 29 30 31 34 35 rings
6 3 5 12 13 14 15 rings
6 39 40 41 42 43 44 rings
6 9 11 26 28 32 36 rings

> <PUBCHEM_HEAVY_ATOM_COUNT>
44

> <PUBCHEM_ATOM_DEF_STEREO_COUNT>
0

> <PUBCHEM_ATOM_UDEF_STEREO_COUNT>
0

> <PUBCHEM_BOND_DEF_STEREO_COUNT>
0

> <PUBCHEM_BOND_UDEF_STEREO_COUNT>
0

> <PUBCHEM_ISOTOPIC_ATOM_COUNT>
0

> <PUBCHEM_COMPONENT_COUNT>
1

> <PUBCHEM_CACTVS_TAUTO_COUNT>
6

> <PUBCHEM_CONFORMER_ID>
02F85A0900000001

> <PUBCHEM_MMFF94_ENERGY>
149.4973

> <PUBCHEM_FEATURE_SELFOVERLAP>
76.379

> <PUBCHEM_SHAPE_FINGERPRINT>
11093857 51 17702402791144926094
11513181 2 17273722891705904943
12422481 6 18271230660560948395
13111901 51 18128559101937269113
14840074 17 18339096985167448333
15274700 242 17608632140609667380
15297060 5 17344939449047193143
15406563 42 16988841700480628699
161222 619 16199004284130126632
17809404 112 16081665459797094240
20764821 26 18192726543892015213
22019808 20 18266444422522403669
22121540 332 16917354723017791484
24941158 1 15069495711453202750
469060 322 18048060505576810015
563151 74 17458906071528773896

> <PUBCHEM_SHAPE_MULTIPOLES>
864.61
12.05
4.78
4.58
5.46
0.46
1.93
-0.19
7.14
1.37
-4.11
-3.84
-0.31
-2.44

> <PUBCHEM_SHAPE_SELFOVERLAP>
1897.176

> <PUBCHEM_SHAPE_VOLUME>
469.8

> <PUBCHEM_COORDINATE_TYPE>
2
5
10

$$$$
