24905246
  -OEChem-10052115143D

 37 40  0     0  0  0  0  0  0999 V2000
    2.4502   -0.9954   -0.0367 N   0  0  0  0  0  0  0  0  0  0  0  0
    1.1836   -1.4251    0.1144 N   0  0  0  0  0  0  0  0  0  0  0  0
   -3.7312   -0.2515    0.5742 N   0  0  0  0  0  0  0  0  0  0  0  0
    3.6913    1.0739   -0.2361 N   0  0  0  0  0  0  0  0  0  0  0  0
    2.2233    3.0195   -0.1369 N   0  0  0  0  0  0  0  0  0  0  0  0
   -0.1407    2.8410    0.1258 N   0  0  0  0  0  0  0  0  0  0  0  0
   -4.1246   -0.3291   -1.6244 N   0  0  0  0  0  0  0  0  0  0  0  0
    3.5229   -1.9578   -0.1235 C   0  0  0  0  0  0  0  0  0  0  0  0
    1.2761    0.8570    0.0333 C   0  0  0  0  0  0  0  0  0  0  0  0
    0.4734   -0.2924    0.1563 C   0  0  0  0  0  0  0  0  0  0  0  0
    2.5624    0.3621   -0.0912 C   0  0  0  0  0  0  0  0  0  0  0  0
   -0.9950   -0.2833    0.3158 C   0  0  0  0  0  0  0  0  0  0  0  0
    3.3682   -2.8645   -1.3471 C   0  0  0  0  0  0  0  0  0  0  0  0
    3.6406   -2.7867    1.1579 C   0  0  0  0  0  0  0  0  0  0  0  0
    1.1250    2.2395    0.0067 C   0  0  0  0  0  0  0  0  0  0  0  0
   -1.7605   -0.3161   -0.8015 C   0  0  0  0  0  0  0  0  0  0  0  0
   -1.6303   -0.2283    1.6374 C   0  0  0  0  0  0  0  0  0  0  0  0
   -3.1838   -0.3027   -0.7022 C   0  0  0  0  0  0  0  0  0  0  0  0
   -2.9690   -0.2144    1.7349 C   0  0  0  0  0  0  0  0  0  0  0  0
    3.4210    2.3971   -0.2480 C   0  0  0  0  0  0  0  0  0  0  0  0
   -5.0940   -0.2472    0.4240 C   0  0  0  0  0  0  0  0  0  0  0  0
   -5.3089   -0.2958   -0.9331 C   0  0  0  0  0  0  0  0  0  0  0  0
    4.4572   -1.3960   -0.2426 H   0  0  0  0  0  0  0  0  0  0  0  0
    2.4696   -3.4876   -1.2788 H   0  0  0  0  0  0  0  0  0  0  0  0
    4.2321   -3.5302   -1.4464 H   0  0  0  0  0  0  0  0  0  0  0  0
    3.2923   -2.2708   -2.2648 H   0  0  0  0  0  0  0  0  0  0  0  0
    2.7526   -3.4069    1.3225 H   0  0  0  0  0  0  0  0  0  0  0  0
    3.7596   -2.1374    2.0324 H   0  0  0  0  0  0  0  0  0  0  0  0
    4.5101   -3.4508    1.1099 H   0  0  0  0  0  0  0  0  0  0  0  0
   -1.3186   -0.3529   -1.7928 H   0  0  0  0  0  0  0  0  0  0  0  0
   -1.0038   -0.1991    2.5220 H   0  0  0  0  0  0  0  0  0  0  0  0
   -3.4884   -0.1745    2.6846 H   0  0  0  0  0  0  0  0  0  0  0  0
    4.2790    3.0510   -0.3616 H   0  0  0  0  0  0  0  0  0  0  0  0
   -5.7698   -0.2113    1.2675 H   0  0  0  0  0  0  0  0  0  0  0  0
   -0.9799    2.2922    0.2364 H   0  0  0  0  0  0  0  0  0  0  0  0
   -0.2015    3.8501    0.1013 H   0  0  0  0  0  0  0  0  0  0  0  0
   -6.2586   -0.3078   -1.4478 H   0  0  0  0  0  0  0  0  0  0  0  0
  1  2  1  0  0  0  0
  1  8  1  0  0  0  0
  1 11  1  0  0  0  0
  2 10  2  0  0  0  0
  3 18  1  0  0  0  0
  3 19  1  0  0  0  0
  3 21  1  0  0  0  0
  4 11  2  0  0  0  0
  4 20  1  0  0  0  0
  5 15  1  0  0  0  0
  5 20  2  0  0  0  0
  6 15  1  0  0  0  0
  6 35  1  0  0  0  0
  6 36  1  0  0  0  0
  7 18  2  0  0  0  0
  7 22  1  0  0  0  0
  8 13  1  0  0  0  0
  8 14  1  0  0  0  0
  8 23  1  0  0  0  0
  9 10  1  0  0  0  0
  9 11  1  0  0  0  0
  9 15  2  0  0  0  0
 10 12  1  0  0  0  0
 12 16  2  0  0  0  0
 12 17  1  0  0  0  0
 13 24  1  0  0  0  0
 13 25  1  0  0  0  0
 13 26  1  0  0  0  0
 14 27  1  0  0  0  0
 14 28  1  0  0  0  0
 14 29  1  0  0  0  0
 16 18  1  0  0  0  0
 16 30  1  0  0  0  0
 17 19  2  0  0  0  0
 17 31  1  0  0  0  0
 19 32  1  0  0  0  0
 20 33  1  0  0  0  0
 21 22  2  0  0  0  0
 21 34  1  0  0  0  0
 22 37  1  0  0  0  0
M  END
> <PUBCHEM_COMPOUND_CID>
24905246

> <PUBCHEM_CONFORMER_RMSD>
0.6

> <PUBCHEM_CONFORMER_DIVERSEORDER>
2
3
5
6
4
1

> <PUBCHEM_MMFF94_PARTIAL_CHARGES>
27
1 0.31
10 0.24
11 0.11
12 0.05
15 0.41
16 -0.11
17 -0.15
18 0.14
19 -0.18
2 -0.71
20 0.47
21 -0.3
22 0.08
3 0.33
30 0.15
31 0.15
32 0.15
33 0.15
34 0.15
35 0.4
36 0.4
37 0.15
4 -0.57
5 -0.62
6 -0.9
7 -0.57
8 0.26

> <PUBCHEM_EFFECTIVE_ROTOR_COUNT>
2

> <PUBCHEM_PHARMACOPHORE_FEATURES>
11
1 2 acceptor
1 6 cation
1 6 donor
3 1 4 11 cation
3 3 7 18 cation
3 4 5 20 cation
3 8 13 14 hydrophobe
5 1 2 9 10 11 rings
5 3 7 18 21 22 rings
6 3 12 16 17 18 19 rings
6 4 5 9 11 15 20 rings

> <PUBCHEM_HEAVY_ATOM_COUNT>
22

> <PUBCHEM_ATOM_DEF_STEREO_COUNT>
0

> <PUBCHEM_ATOM_UDEF_STEREO_COUNT>
0

> <PUBCHEM_BOND_DEF_STEREO_COUNT>
0

> <PUBCHEM_BOND_UDEF_STEREO_COUNT>
0

> <PUBCHEM_ISOTOPIC_ATOM_COUNT>
0

> <PUBCHEM_COMPONENT_COUNT>
1

> <PUBCHEM_CACTVS_TAUTO_COUNT>
5

> <PUBCHEM_CONFORMER_ID>
017C061E00000002

> <PUBCHEM_MMFF94_ENERGY>
49.3213

> <PUBCHEM_FEATURE_SELFOVERLAP>
56.216

> <PUBCHEM_SHAPE_FINGERPRINT>
10411042 1 18193838146401640786
10693767 8 18130796650927829310
11265709 11 18265608789337214890
11471102 20 18337392737749233812
116883 192 18268429023350167156
12236239 1 17703795842275525681
12363563 72 18264775350675125506
12403259 415 17530965774691107855
12553582 1 18193852452679429498
12730499 353 18262243347052176339
13009979 54 17631746962425853690
13083527 12 18339630149928613562
13134695 92 18409165506540716612
13140716 1 18122343747209138392
13544592 145 17676489423750086363
13583140 156 18263651830269738267
15848702 151 18412545388463183983
16945 1 18338242660606652888
17349148 13 17704073975868218887
17357779 13 18261393304130832540
17818456 19 17415293732096261489
1813 80 18057053419327551158
18186145 218 17675922076050444209
18222031 100 18271806753404848630
18681886 176 16701741674038109932
200 152 18272084977138314843
20369508 70 18114174195030815674
20645477 70 18410013238553624262
20832881 197 18042402422386532427
21065201 7 16370725937574442787
221357 26 18334285441028094933
22289505 5 18335412465520186245
2255824 54 18413111667011296702
23175994 123 18262244300545588875
23557571 272 14045755815446387987
23559900 14 17095525080282665082
23598291 2 18059869311138888835
25 1 18263924513047356864
25147074 1 18268162971980980472
2748010 2 18194396702708701612
312423 11 18271540714365941969
3886686 26 17047923082201506768
4072396 5 18263066847529662760
474 4 18196654218475362224
5281201 14 18260825982254034477
633830 44 18187074041135196519
70251023 43 18267587913950379195
7164475 11 18201440216386609809
7471813 234 18342166726878933944
7615 1 17775014465917915585
77492 1 17775576355114582761
7970288 3 18196092140485497158
81228 2 17761778360659963832
8272917 22 18412548733815303399
9841814 1 18261386707578193074
9971528 1 18272084959758069994

> <PUBCHEM_SHAPE_MULTIPOLES>
417.88
9.52
2.97
1.26
8.91
0.99
-0.17
-3.42
1.52
-5.6
0.22
0.95
-0.56
-0.18

> <PUBCHEM_SHAPE_SELFOVERLAP>
932.627

> <PUBCHEM_SHAPE_VOLUME>
218.6

> <PUBCHEM_COORDINATE_TYPE>
2
5
10

$$$$
