5328127
  -OEChem-10052120443D

 53 55  0     0  0  0  0  0  0999 V2000
    1.4265    3.1158   -0.0003 O   0  0  0  0  0  0  0  0  0  0  0  0
   -3.7895   -1.9129   -2.3867 O   0  0  0  0  0  0  0  0  0  0  0  0
   -3.7893   -1.9143    2.3864 O   0  0  0  0  0  0  0  0  0  0  0  0
   -0.8685    3.3871    0.0007 N   0  0  0  0  0  0  0  0  0  0  0  0
   -0.0158    1.2637    0.0009 N   0  0  0  0  0  0  0  0  0  0  0  0
    2.1936    0.4593    0.0004 N   0  0  0  0  0  0  0  0  0  0  0  0
    4.3883   -0.2791    0.0001 N   0  0  0  0  0  0  0  0  0  0  0  0
    4.9262   -2.6266   -0.0003 N   0  0  0  0  0  0  0  0  0  0  0  0
    6.6192   -1.0090   -0.0005 N   0  0  0  0  0  0  0  0  0  0  0  0
   -0.8617    4.8387    0.0005 C   0  0  0  0  0  0  0  0  0  0  0  0
   -2.3062    5.3521    0.0008 C   0  0  0  0  0  0  0  0  0  0  0  0
   -0.1340    5.3364    1.2536 C   0  0  0  0  0  0  0  0  0  0  0  0
   -0.1383    5.3418   -1.2541 C   0  0  0  0  0  0  0  0  0  0  0  0
    0.3000    2.6252    0.0005 C   0  0  0  0  0  0  0  0  0  0  0  0
    0.3523   -1.1043    0.0000 C   0  0  0  0  0  0  0  0  0  0  0  0
    0.8758    0.1658    0.0004 C   0  0  0  0  0  0  0  0  0  0  0  0
   -1.0685   -1.3819    0.0001 C   0  0  0  0  0  0  0  0  0  0  0  0
    1.2582   -2.1503   -0.0003 C   0  0  0  0  0  0  0  0  0  0  0  0
    2.6336   -1.8754   -0.0003 C   0  0  0  0  0  0  0  0  0  0  0  0
    3.0777   -0.5478    0.0000 C   0  0  0  0  0  0  0  0  0  0  0  0
   -1.7521   -1.5158    1.2078 C   0  0  0  0  0  0  0  0  0  0  0  0
   -1.7522   -1.5151   -1.2080 C   0  0  0  0  0  0  0  0  0  0  0  0
   -3.1212   -1.7827   -1.2081 C   0  0  0  0  0  0  0  0  0  0  0  0
   -3.1211   -1.7833    1.2079 C   0  0  0  0  0  0  0  0  0  0  0  0
   -3.8056   -1.9168   -0.0002 C   0  0  0  0  0  0  0  0  0  0  0  0
    3.6055   -2.8730   -0.0004 C   0  0  0  0  0  0  0  0  0  0  0  0
    5.2426   -1.3239   -0.0004 C   0  0  0  0  0  0  0  0  0  0  0  0
   -5.1878   -2.1863   -2.3135 C   0  0  0  0  0  0  0  0  0  0  0  0
   -5.1877   -2.1875    2.3131 C   0  0  0  0  0  0  0  0  0  0  0  0
   -2.8511    4.9971    0.8834 H   0  0  0  0  0  0  0  0  0  0  0  0
   -2.3422    6.4471    0.0015 H   0  0  0  0  0  0  0  0  0  0  0  0
   -2.8517    4.9978   -0.8817 H   0  0  0  0  0  0  0  0  0  0  0  0
    0.9339    5.0997    1.2572 H   0  0  0  0  0  0  0  0  0  0  0  0
   -0.5693    4.9017    2.1611 H   0  0  0  0  0  0  0  0  0  0  0  0
   -0.2130    6.4267    1.3396 H   0  0  0  0  0  0  0  0  0  0  0  0
   -0.5784    4.9118   -2.1616 H   0  0  0  0  0  0  0  0  0  0  0  0
   -0.2151    6.4327   -1.3344 H   0  0  0  0  0  0  0  0  0  0  0  0
    0.9289    5.1019   -1.2630 H   0  0  0  0  0  0  0  0  0  0  0  0
   -1.7614    2.9033    0.0009 H   0  0  0  0  0  0  0  0  0  0  0  0
   -1.0079    1.0468    0.0011 H   0  0  0  0  0  0  0  0  0  0  0  0
    0.9119   -3.1822   -0.0005 H   0  0  0  0  0  0  0  0  0  0  0  0
   -1.2280   -1.4130    2.1557 H   0  0  0  0  0  0  0  0  0  0  0  0
   -1.2281   -1.4117   -2.1557 H   0  0  0  0  0  0  0  0  0  0  0  0
   -4.8653   -2.1239   -0.0002 H   0  0  0  0  0  0  0  0  0  0  0  0
    3.3389   -3.9257   -0.0006 H   0  0  0  0  0  0  0  0  0  0  0  0
   -5.3866   -3.1537   -1.8396 H   0  0  0  0  0  0  0  0  0  0  0  0
   -5.5549   -2.2577   -3.3428 H   0  0  0  0  0  0  0  0  0  0  0  0
   -5.7363   -1.3653   -1.8391 H   0  0  0  0  0  0  0  0  0  0  0  0
   -5.3866   -3.1547    1.8387 H   0  0  0  0  0  0  0  0  0  0  0  0
   -5.7360   -1.3662    1.8392 H   0  0  0  0  0  0  0  0  0  0  0  0
   -5.5548   -2.2595    3.3423 H   0  0  0  0  0  0  0  0  0  0  0  0
    6.9073   -0.0404    0.0003 H   0  0  0  0  0  0  0  0  0  0  0  0
    7.2998   -1.7561    0.0000 H   0  0  0  0  0  0  0  0  0  0  0  0
  1 14  2  0  0  0  0
  2 23  1  0  0  0  0
  2 28  1  0  0  0  0
  3 24  1  0  0  0  0
  3 29  1  0  0  0  0
  4 10  1  0  0  0  0
  4 14  1  0  0  0  0
  4 39  1  0  0  0  0
  5 14  1  0  0  0  0
  5 16  1  0  0  0  0
  5 40  1  0  0  0  0
  6 16  1  0  0  0  0
  6 20  2  0  0  0  0
  7 20  1  0  0  0  0
  7 27  2  0  0  0  0
  8 26  2  0  0  0  0
  8 27  1  0  0  0  0
  9 27  1  0  0  0  0
  9 52  1  0  0  0  0
  9 53  1  0  0  0  0
 10 11  1  0  0  0  0
 10 12  1  0  0  0  0
 10 13  1  0  0  0  0
 11 30  1  0  0  0  0
 11 31  1  0  0  0  0
 11 32  1  0  0  0  0
 12 33  1  0  0  0  0
 12 34  1  0  0  0  0
 12 35  1  0  0  0  0
 13 36  1  0  0  0  0
 13 37  1  0  0  0  0
 13 38  1  0  0  0  0
 15 16  2  0  0  0  0
 15 17  1  0  0  0  0
 15 18  1  0  0  0  0
 17 21  2  0  0  0  0
 17 22  1  0  0  0  0
 18 19  2  0  0  0  0
 18 41  1  0  0  0  0
 19 20  1  0  0  0  0
 19 26  1  0  0  0  0
 21 24  1  0  0  0  0
 21 42  1  0  0  0  0
 22 23  2  0  0  0  0
 22 43  1  0  0  0  0
 23 25  1  0  0  0  0
 24 25  2  0  0  0  0
 25 44  1  0  0  0  0
 26 45  1  0  0  0  0
 28 46  1  0  0  0  0
 28 47  1  0  0  0  0
 28 48  1  0  0  0  0
 29 49  1  0  0  0  0
 29 50  1  0  0  0  0
 29 51  1  0  0  0  0
M  END
> <PUBCHEM_COMPOUND_CID>
5328127

> <PUBCHEM_CONFORMER_RMSD>
0.8

> <PUBCHEM_CONFORMER_DIVERSEORDER>
1
9
10
5
2
6
3
7
8
4

> <PUBCHEM_MMFF94_PARTIAL_CHARGES>
32
1 -0.57
10 0.3
14 0.69
16 0.43
18 -0.15
2 -0.36
20 0.62
21 -0.15
22 -0.15
23 0.08
24 0.08
25 -0.15
26 0.16
27 0.72
28 0.28
29 0.28
3 -0.36
39 0.37
4 -0.73
40 0.37
41 0.15
42 0.15
43 0.15
44 0.15
45 0.15
5 -0.55
52 0.4
53 0.4
6 -0.62
7 -0.62
8 -0.62
9 -0.9

> <PUBCHEM_EFFECTIVE_ROTOR_COUNT>
7

> <PUBCHEM_PHARMACOPHORE_FEATURES>
12
1 1 acceptor
1 2 acceptor
1 3 acceptor
1 4 donor
1 5 donor
1 8 acceptor
1 9 donor
4 10 11 12 13 hydrophobe
4 7 8 9 27 cation
6 17 21 22 23 24 25 rings
6 6 15 16 18 19 20 rings
6 7 8 19 20 26 27 rings

> <PUBCHEM_HEAVY_ATOM_COUNT>
29

> <PUBCHEM_ATOM_DEF_STEREO_COUNT>
0

> <PUBCHEM_ATOM_UDEF_STEREO_COUNT>
0

> <PUBCHEM_BOND_DEF_STEREO_COUNT>
0

> <PUBCHEM_BOND_UDEF_STEREO_COUNT>
0

> <PUBCHEM_ISOTOPIC_ATOM_COUNT>
0

> <PUBCHEM_COMPONENT_COUNT>
1

> <PUBCHEM_CACTVS_TAUTO_COUNT>
24

> <PUBCHEM_CONFORMER_ID>
00514CFF00000001

> <PUBCHEM_MMFF94_ENERGY>
114.2964

> <PUBCHEM_FEATURE_SELFOVERLAP>
60.987

> <PUBCHEM_SHAPE_FINGERPRINT>
10074138 170 17973988567107260096
11115154 58 18267279025120059095
11445158 3 18125170570166822023
11578080 2 17416374659131412043
11991303 11 17757566152735492884
12160290 23 17910982169621009736
12166972 35 17987787657332901055
12236239 1 17632015346479960991
12293681 4 18262805043328821435
12342043 65 17461174407141506123
12553582 1 18411426141524551510
12741549 16 17821727277511290629
12788726 201 18120639254592425747
13134695 92 18337952414752836199
13140716 1 18410022026104256368
13590594 115 18411979161708230505
13690498 29 18054812610773273502
13692114 37 17622697857217143613
138480 1 15240040534857010208
13911987 19 18261396702094139838
14028597 1 17531805745059770530
14363568 33 18046640176159509348
14556957 393 18335719234397710028
14790565 3 17404019224238921964
15021287 119 18343308098208036275
15081414 286 18194403518436769464
15629462 23 18264482889525590547
15842332 3 17556872635026592103
15927050 60 17546442280793759086
16087824 20 18268424630464306597
16988056 13 18122315099587734357
17138139 8 17477719582884957629
17980427 23 17203051897246280627
1813 80 18200330882400788614
18785283 64 17903085773399788891
19301679 30 18264499403200506258
19427546 62 17545043697924298104
20028762 73 16613061276226278742
20101258 96 18411985745492194760
20739085 24 18269571592072344186
21041028 32 18336276698812677874
21049683 118 17544165217981985000
21307412 95 16908915735748840710
21641784 216 18261691311233212116
23558518 356 18048030775328111494
23559900 14 18123455348853789367
23845131 108 17469610607077779697
23929065 36 18052226576408680928
24771293 8 17986108737689953976
283562 15 18336257947624221826
4015057 19 18263639744390334747
513202 73 18198350550448705142
5171179 24 18058711594462821896
59025328 239 17986081176114669655
5969126 39 18341602695205839830
6677587 24 16106337534630962909
79837 15 17761780563609499864
9658208 31 17766826244402785464

> <PUBCHEM_SHAPE_MULTIPOLES>
549.31
10.06
7.71
1.63
7.18
19.72
0
-13.89
0
-3.66
0
-3.73
-1.18
0

> <PUBCHEM_SHAPE_SELFOVERLAP>
1186.126

> <PUBCHEM_SHAPE_VOLUME>
301.2

> <PUBCHEM_COORDINATE_TYPE>
2
5
10

$$$$
