44375763
  -OEChem-10062121593D

 55 59  0     0  0  0  0  0  0999 V2000
    0.7009   -1.1680    1.2120 S   0  0  0  0  0  0  0  0  0  0  0  0
   -3.3384   -1.1594   -2.4743 O   0  0  0  0  0  0  0  0  0  0  0  0
   -4.8610   -3.1305    1.3726 O   0  0  0  0  0  0  0  0  0  0  0  0
   -0.3376    1.8084   -0.4421 N   0  0  0  0  0  0  0  0  0  0  0  0
   -4.2842   -2.4273   -0.7704 N   0  0  0  0  0  0  0  0  0  0  0  0
    3.8904    1.8748    0.4359 N   0  0  0  0  0  0  0  0  0  0  0  0
   -2.9903   -0.5293    3.4026 N   0  0  0  0  0  0  0  0  0  0  0  0
    6.0010    0.8563    0.1356 N   0  0  0  0  0  0  0  0  0  0  0  0
    5.9303    3.1200    0.6479 N   0  0  0  0  0  0  0  0  0  0  0  0
    4.8504   -1.3194   -0.3155 N   0  0  0  0  0  0  0  0  0  0  0  0
   -0.7811    0.5183   -0.3256 C   0  0  0  0  0  0  0  0  0  0  0  0
   -2.1556    0.5461   -0.2723 C   0  0  0  0  0  0  0  0  0  0  0  0
   -1.4054    2.6772   -0.4653 C   0  0  0  0  0  0  0  0  0  0  0  0
   -2.5650    1.9061   -0.3596 C   0  0  0  0  0  0  0  0  0  0  0  0
    1.0510    2.2152   -0.5323 C   0  0  0  0  0  0  0  0  0  0  0  0
    0.1005   -0.5951   -0.2770 C   0  0  0  0  0  0  0  0  0  0  0  0
    1.6293    2.7463    0.7862 C   0  0  0  0  0  0  0  0  0  0  0  0
   -3.0232   -0.6271   -0.1482 C   0  0  0  0  0  0  0  0  0  0  0  0
   -1.4332    4.0723   -0.5706 C   0  0  0  0  0  0  0  0  0  0  0  0
   -3.8146    2.5573   -0.3590 C   0  0  0  0  0  0  0  0  0  0  0  0
    0.5719   -1.3288   -1.3396 C   0  0  0  0  0  0  0  0  0  0  0  0
    3.1177    3.0815    0.7334 C   0  0  0  0  0  0  0  0  0  0  0  0
   -3.4754   -1.2151    0.9703 C   0  0  0  0  0  0  0  0  0  0  0  0
   -2.6839    4.6961   -0.5677 C   0  0  0  0  0  0  0  0  0  0  0  0
   -3.8577    3.9524   -0.4638 C   0  0  0  0  0  0  0  0  0  0  0  0
    1.4489   -2.3922   -0.9393 C   0  0  0  0  0  0  0  0  0  0  0  0
   -3.5426   -1.4101   -1.2985 C   0  0  0  0  0  0  0  0  0  0  0  0
    1.6099   -2.4194    0.4496 C   0  0  0  0  0  0  0  0  0  0  0  0
   -4.2986   -2.3812    0.5927 C   0  0  0  0  0  0  0  0  0  0  0  0
    2.1339   -3.3612   -1.7117 C   0  0  0  0  0  0  0  0  0  0  0  0
    2.4283   -3.3787    1.0775 C   0  0  0  0  0  0  0  0  0  0  0  0
    2.9466   -4.3141   -1.0919 C   0  0  0  0  0  0  0  0  0  0  0  0
    3.0908   -4.3210    0.2882 C   0  0  0  0  0  0  0  0  0  0  0  0
   -3.2090   -0.8384    2.3060 C   0  0  0  0  0  0  0  0  0  0  0  0
    5.1758    1.9961    0.4200 C   0  0  0  0  0  0  0  0  0  0  0  0
    5.3794   -0.3080   -0.1057 C   0  0  0  0  0  0  0  0  0  0  0  0
    1.1157    2.9877   -1.3084 H   0  0  0  0  0  0  0  0  0  0  0  0
    1.6430    1.3748   -0.9062 H   0  0  0  0  0  0  0  0  0  0  0  0
    1.4615    2.0044    1.5770 H   0  0  0  0  0  0  0  0  0  0  0  0
    1.0801    3.6451    1.0915 H   0  0  0  0  0  0  0  0  0  0  0  0
   -0.5263    4.6616   -0.6530 H   0  0  0  0  0  0  0  0  0  0  0  0
   -4.7392    1.9926   -0.2787 H   0  0  0  0  0  0  0  0  0  0  0  0
    0.3066   -1.1233   -2.3703 H   0  0  0  0  0  0  0  0  0  0  0  0
    3.2872    3.8442   -0.0361 H   0  0  0  0  0  0  0  0  0  0  0  0
    3.4121    3.4943    1.7059 H   0  0  0  0  0  0  0  0  0  0  0  0
   -2.7406    5.7787   -0.6482 H   0  0  0  0  0  0  0  0  0  0  0  0
   -4.8186    4.4600   -0.4639 H   0  0  0  0  0  0  0  0  0  0  0  0
   -4.7673   -3.1267   -1.3226 H   0  0  0  0  0  0  0  0  0  0  0  0
    2.0311   -3.3682   -2.7941 H   0  0  0  0  0  0  0  0  0  0  0  0
    2.5476   -3.3913    2.1572 H   0  0  0  0  0  0  0  0  0  0  0  0
    3.4674   -5.0520   -1.6955 H   0  0  0  0  0  0  0  0  0  0  0  0
    3.7254   -5.0656    0.7612 H   0  0  0  0  0  0  0  0  0  0  0  0
    7.0088    0.9724    0.1279 H   0  0  0  0  0  0  0  0  0  0  0  0
    5.5115    4.0184    0.8606 H   0  0  0  0  0  0  0  0  0  0  0  0
    6.9432    3.0876    0.6071 H   0  0  0  0  0  0  0  0  0  0  0  0
  1 16  1  0  0  0  0
  1 28  1  0  0  0  0
  2 27  2  0  0  0  0
  3 29  2  0  0  0  0
  4 11  1  0  0  0  0
  4 13  1  0  0  0  0
  4 15  1  0  0  0  0
  5 27  1  0  0  0  0
  5 29  1  0  0  0  0
  5 48  1  0  0  0  0
  6 22  1  0  0  0  0
  6 35  2  0  0  0  0
  7 34  3  0  0  0  0
  8 35  1  0  0  0  0
  8 36  1  0  0  0  0
  8 53  1  0  0  0  0
  9 35  1  0  0  0  0
  9 54  1  0  0  0  0
  9 55  1  0  0  0  0
 10 36  3  0  0  0  0
 11 12  2  0  0  0  0
 11 16  1  0  0  0  0
 12 14  1  0  0  0  0
 12 18  1  0  0  0  0
 13 14  1  0  0  0  0
 13 19  2  0  0  0  0
 14 20  2  0  0  0  0
 15 17  1  0  0  0  0
 15 37  1  0  0  0  0
 15 38  1  0  0  0  0
 16 21  2  0  0  0  0
 17 22  1  0  0  0  0
 17 39  1  0  0  0  0
 17 40  1  0  0  0  0
 18 23  2  0  0  0  0
 18 27  1  0  0  0  0
 19 24  1  0  0  0  0
 19 41  1  0  0  0  0
 20 25  1  0  0  0  0
 20 42  1  0  0  0  0
 21 26  1  0  0  0  0
 21 43  1  0  0  0  0
 22 44  1  0  0  0  0
 22 45  1  0  0  0  0
 23 29  1  0  0  0  0
 23 34  1  0  0  0  0
 24 25  2  0  0  0  0
 24 46  1  0  0  0  0
 25 47  1  0  0  0  0
 26 28  1  0  0  0  0
 26 30  2  0  0  0  0
 28 31  2  0  0  0  0
 30 32  1  0  0  0  0
 30 49  1  0  0  0  0
 31 33  1  0  0  0  0
 31 50  1  0  0  0  0
 32 33  2  0  0  0  0
 32 51  1  0  0  0  0
 33 52  1  0  0  0  0
M  END
> <PUBCHEM_COMPOUND_CID>
44375763

> <PUBCHEM_CONFORMER_RMSD>
1

> <PUBCHEM_CONFORMER_DIVERSEORDER>
1
79
34
86
127
110
113
48
63
111
173
145
172
179
12
29
150
82
178
56
93
32
18
80
54
75
65
168
176
36
131
57
87
61
42
90
132
72
88
62
166
49
94
99
59
58
149
60
55
124
136
40
50
116
163
174
46
85
74
70
11
152
133
177
76
167
165
129
161
51
37
25
142
89
171
68
128
114
97
35
73
105
24
33
144
151
27
169
121
71
137
3
135
83
15
96
115
102
156
64
170
141
81
69
138
117
44
38
6
31
153
130
16
107
106
92
103
155
45
8
140
157
43
21
109
66
100
143
30
95
23
175
120
123
118
134
39
158
5
22
13
14
162
119
112
126
26
47
139
67
98
164
2
20
160
91
52
17
9
104
148
146
7
154
122
108
19
125
147
101
159
10
41
4
28
77
53
78
84

> <PUBCHEM_MMFF94_PARTIAL_CHARGES>
46
1 -0.08
10 -0.56
11 -0.15
12 -0.05
13 -0.15
15 0.26
16 0.04
18 0.06
19 -0.15
2 -0.57
20 -0.15
21 -0.15
22 0.25
23 0.08
24 -0.15
25 -0.15
27 0.62
28 0.04
29 0.62
3 -0.57
30 -0.15
31 -0.15
32 -0.15
33 -0.15
34 0.49
35 0.55
36 0.62
4 0.05
41 0.15
42 0.15
43 0.15
46 0.15
47 0.15
48 0.37
49 0.15
5 -0.49
50 0.15
51 0.15
52 0.15
53 0.4
54 0.4
55 0.4
6 -0.7
7 -0.56
8 -0.51
9 -0.85

> <PUBCHEM_EFFECTIVE_ROTOR_COUNT>
7.2

> <PUBCHEM_PHARMACOPHORE_FEATURES>
14
1 10 acceptor
1 2 acceptor
1 3 acceptor
1 4 cation
1 5 donor
1 7 acceptor
1 8 donor
1 9 donor
4 6 8 9 35 cation
5 1 16 21 26 28 rings
5 4 11 12 13 14 rings
5 5 18 23 27 29 rings
6 13 14 19 20 24 25 rings
6 26 28 30 31 32 33 rings

> <PUBCHEM_HEAVY_ATOM_COUNT>
36

> <PUBCHEM_ATOM_DEF_STEREO_COUNT>
0

> <PUBCHEM_ATOM_UDEF_STEREO_COUNT>
0

> <PUBCHEM_BOND_DEF_STEREO_COUNT>
0

> <PUBCHEM_BOND_UDEF_STEREO_COUNT>
0

> <PUBCHEM_ISOTOPIC_ATOM_COUNT>
0

> <PUBCHEM_COMPONENT_COUNT>
1

> <PUBCHEM_CACTVS_TAUTO_COUNT>
9

> <PUBCHEM_CONFORMER_ID>
02A51ED300000001

> <PUBCHEM_MMFF94_ENERGY>
82.5025

> <PUBCHEM_FEATURE_SELFOVERLAP>
71.245

> <PUBCHEM_SHAPE_FINGERPRINT>
10305334 12 17393279327322323368
1100329 8 17833263125855628080
11007060 377 18127687356588214016
11227688 84 18124014974555284887
11578080 2 18272662199252483881
13140716 1 18049727613400329967
13911987 19 17901384812000892941
14068700 686 18411702110304988548
14955137 171 17975133463664936651
15082195 135 18054760962915254485
16112460 7 17983302526022881073
19319366 153 16884993681851463347
20028762 73 17694225864798237343
23559900 14 17980195288835113134
249057 3 17688873034441323550
3298306 158 18340765941145554620
4015057 19 18052240813497422645
5171179 24 18339369556661266610
5309563 4 18264771141675532835
57307002 85 17676494998417163874
59755656 215 18335692854223566285

> <PUBCHEM_SHAPE_MULTIPOLES>
698.11
10.88
6.77
1.69
8.77
1.79
0.77
1.56
1.03
1.08
-0.51
-1.53
-1.34
2.67

> <PUBCHEM_SHAPE_SELFOVERLAP>
1538.585

> <PUBCHEM_SHAPE_VOLUME>
378.5

> <PUBCHEM_COORDINATE_TYPE>
2
5
10

$$$$
