44364178
  -OEChem-10052115143D

 49 56  0     1  0  0  0  0  0999 V2000
    2.2999   -3.9393   -0.2182 O   0  0  0  0  0  0  0  0  0  0  0  0
   -2.2999   -3.9392   -0.2206 O   0  0  0  0  0  0  0  0  0  0  0  0
    1.4876    1.4728    0.2888 N   0  0  0  0  0  0  0  0  0  0  0  0
   -1.4877    1.4728    0.2883 N   0  0  0  0  0  0  0  0  0  0  0  0
   -0.0001    3.0651    1.2012 N   0  0  0  0  0  0  0  0  0  0  0  0
    0.0000   -4.3167   -0.2545 N   0  0  0  0  0  0  0  0  0  0  0  0
    1.2085    2.8899    0.4137 C   0  0  2  0  0  0  0  0  0  0  0  0
   -1.2084    2.8900    0.4133 C   0  0  1  0  0  0  0  0  0  0  0  0
    0.7121    0.3508    0.1800 C   0  0  0  0  0  0  0  0  0  0  0  0
   -0.7121    0.3509    0.1799 C   0  0  0  0  0  0  0  0  0  0  0  0
    1.2407    3.6384   -0.9249 C   0  0  0  0  0  0  0  0  0  0  0  0
   -1.2402    3.6384   -0.9254 C   0  0  0  0  0  0  0  0  0  0  0  0
    0.0004    3.3747   -1.7639 C   0  0  0  0  0  0  0  0  0  0  0  0
    1.3326   -0.9576    0.0570 C   0  0  0  0  0  0  0  0  0  0  0  0
   -1.3327   -0.9575    0.0570 C   0  0  0  0  0  0  0  0  0  0  0  0
    2.7789    0.9316    0.2229 C   0  0  0  0  0  0  0  0  0  0  0  0
   -2.7789    0.9317    0.2226 C   0  0  0  0  0  0  0  0  0  0  0  0
    2.7206   -0.4878    0.0945 C   0  0  0  0  0  0  0  0  0  0  0  0
   -2.7208   -0.4878    0.0948 C   0  0  0  0  0  0  0  0  0  0  0  0
    0.6896   -2.1849   -0.0553 C   0  0  0  0  0  0  0  0  0  0  0  0
   -0.6896   -2.1848   -0.0554 C   0  0  0  0  0  0  0  0  0  0  0  0
    4.0204    1.6029    0.2626 C   0  0  0  0  0  0  0  0  0  0  0  0
   -4.0206    1.6030    0.2617 C   0  0  0  0  0  0  0  0  0  0  0  0
    1.1464   -3.5611   -0.1837 C   0  0  0  0  0  0  0  0  0  0  0  0
   -1.1464   -3.5610   -0.1844 C   0  0  0  0  0  0  0  0  0  0  0  0
    3.9544   -1.1844    0.0207 C   0  0  0  0  0  0  0  0  0  0  0  0
   -3.9545   -1.1844    0.0221 C   0  0  0  0  0  0  0  0  0  0  0  0
    5.2056    0.8724    0.1851 C   0  0  0  0  0  0  0  0  0  0  0  0
   -5.2057    0.8727    0.1847 C   0  0  0  0  0  0  0  0  0  0  0  0
    5.1750   -0.5059    0.0670 C   0  0  0  0  0  0  0  0  0  0  0  0
   -5.1752   -0.5058    0.0683 C   0  0  0  0  0  0  0  0  0  0  0  0
    2.0150    3.2999    1.0326 H   0  0  0  0  0  0  0  0  0  0  0  0
   -2.0151    3.3000    1.0319 H   0  0  0  0  0  0  0  0  0  0  0  0
    2.1331    3.3722   -1.5033 H   0  0  0  0  0  0  0  0  0  0  0  0
    1.3060    4.7161   -0.7247 H   0  0  0  0  0  0  0  0  0  0  0  0
   -1.3055    4.7161   -0.7252 H   0  0  0  0  0  0  0  0  0  0  0  0
   -2.1324    3.3722   -1.5040 H   0  0  0  0  0  0  0  0  0  0  0  0
   -0.0003    2.4970    2.0467 H   0  0  0  0  0  0  0  0  0  0  0  0
    0.0006    4.0239   -2.6466 H   0  0  0  0  0  0  0  0  0  0  0  0
    0.0005    2.3421   -2.1307 H   0  0  0  0  0  0  0  0  0  0  0  0
    4.0712    2.6843    0.3506 H   0  0  0  0  0  0  0  0  0  0  0  0
   -4.0712    2.6846    0.3488 H   0  0  0  0  0  0  0  0  0  0  0  0
    3.9784   -2.2639   -0.0765 H   0  0  0  0  0  0  0  0  0  0  0  0
   -3.9786   -2.2640   -0.0740 H   0  0  0  0  0  0  0  0  0  0  0  0
   -0.0001   -5.3262   -0.3487 H   0  0  0  0  0  0  0  0  0  0  0  0
    6.1594    1.3919    0.2169 H   0  0  0  0  0  0  0  0  0  0  0  0
   -6.1595    1.3921    0.2162 H   0  0  0  0  0  0  0  0  0  0  0  0
    6.1040   -1.0660    0.0072 H   0  0  0  0  0  0  0  0  0  0  0  0
   -6.1042   -1.0661    0.0092 H   0  0  0  0  0  0  0  0  0  0  0  0
  1 24  2  0  0  0  0
  2 25  2  0  0  0  0
  3  7  1  0  0  0  0
  3  9  1  0  0  0  0
  3 16  1  0  0  0  0
  4  8  1  0  0  0  0
  4 10  1  0  0  0  0
  4 17  1  0  0  0  0
  5  7  1  0  0  0  0
  5  8  1  0  0  0  0
  5 38  1  0  0  0  0
  6 24  1  0  0  0  0
  6 25  1  0  0  0  0
  6 45  1  0  0  0  0
  7 11  1  0  0  0  0
  7 32  1  0  0  0  0
  8 12  1  0  0  0  0
  8 33  1  0  0  0  0
  9 10  2  0  0  0  0
  9 14  1  0  0  0  0
 10 15  1  0  0  0  0
 11 13  1  0  0  0  0
 11 34  1  0  0  0  0
 11 35  1  0  0  0  0
 12 13  1  0  0  0  0
 12 36  1  0  0  0  0
 12 37  1  0  0  0  0
 13 39  1  0  0  0  0
 13 40  1  0  0  0  0
 14 18  1  0  0  0  0
 14 20  2  0  0  0  0
 15 19  1  0  0  0  0
 15 21  2  0  0  0  0
 16 18  1  0  0  0  0
 16 22  2  0  0  0  0
 17 19  1  0  0  0  0
 17 23  2  0  0  0  0
 18 26  2  0  0  0  0
 19 27  2  0  0  0  0
 20 21  1  0  0  0  0
 20 24  1  0  0  0  0
 21 25  1  0  0  0  0
 22 28  1  0  0  0  0
 22 41  1  0  0  0  0
 23 29  1  0  0  0  0
 23 42  1  0  0  0  0
 26 30  1  0  0  0  0
 26 43  1  0  0  0  0
 27 31  1  0  0  0  0
 27 44  1  0  0  0  0
 28 30  2  0  0  0  0
 28 46  1  0  0  0  0
 29 31  2  0  0  0  0
 29 47  1  0  0  0  0
 30 48  1  0  0  0  0
 31 49  1  0  0  0  0
M  END
> <PUBCHEM_COMPOUND_CID>
44364178

> <PUBCHEM_CONFORMER_RMSD>
0.6

> <PUBCHEM_CONFORMER_DIVERSEORDER>
1

> <PUBCHEM_MMFF94_PARTIAL_CHARGES>
36
1 -0.57
10 -0.05
14 -0.01
15 -0.01
16 -0.15
17 -0.15
2 -0.57
20 0.09
21 0.09
22 -0.15
23 -0.15
24 0.54
25 0.54
26 -0.15
27 -0.15
28 -0.15
29 -0.15
3 -0.04
30 -0.15
31 -0.15
38 0.36
4 -0.04
41 0.15
42 0.15
43 0.15
44 0.15
45 0.37
46 0.15
47 0.15
48 0.15
49 0.15
5 -0.9
6 -0.49
7 0.53
8 0.53
9 -0.05

> <PUBCHEM_EFFECTIVE_ROTOR_COUNT>
1

> <PUBCHEM_PHARMACOPHORE_FEATURES>
15
1 1 acceptor
1 2 acceptor
1 3 cation
1 4 cation
1 5 cation
1 5 donor
1 6 donor
5 3 9 14 16 18 rings
5 4 10 15 17 19 rings
5 6 20 21 24 25 rings
6 16 18 22 26 28 30 rings
6 17 19 23 27 29 31 rings
6 5 7 8 11 12 13 rings
6 9 10 14 15 20 21 rings
7 3 4 5 7 8 9 10 rings

> <PUBCHEM_HEAVY_ATOM_COUNT>
31

> <PUBCHEM_ATOM_DEF_STEREO_COUNT>
2

> <PUBCHEM_ATOM_UDEF_STEREO_COUNT>
0

> <PUBCHEM_BOND_DEF_STEREO_COUNT>
0

> <PUBCHEM_BOND_UDEF_STEREO_COUNT>
0

> <PUBCHEM_ISOTOPIC_ATOM_COUNT>
0

> <PUBCHEM_COMPONENT_COUNT>
1

> <PUBCHEM_CACTVS_TAUTO_COUNT>
2

> <PUBCHEM_CONFORMER_ID>
02A4F19200000001

> <PUBCHEM_MMFF94_ENERGY>
118.4561

> <PUBCHEM_FEATURE_SELFOVERLAP>
77.454

> <PUBCHEM_SHAPE_FINGERPRINT>
10411042 1 17619345845702359486
10675989 125 17469028974802402821
10906281 52 18263103066297825265
10940486 97 18048599519282138196
10967382 1 18411982446725352243
1100329 8 18267585891030832081
11445158 3 17969227913803190653
11513181 2 17916302736790375399
11578080 2 16808692033149214607
13140716 1 18268991071143905754
13402501 40 18411699876468378680
138480 1 17259061797022822914
140371 6 18261407606905067673
14117953 113 18409448059654452325
14178342 30 17475500055123023128
14223421 5 18049441435471061028
14790565 3 18411989060917362145
15927050 60 17763751291936101116
16728300 4 17535440675083692226
19591789 44 18339643317923841930
19930381 70 18266740186353602083
20028762 73 18057884834976141751
20600515 1 18342184413633887068
20642791 178 18262813963891966821
20739085 24 18050315603577232481
20775438 99 16331275713562655071
20905425 154 18053105012530857758
21033648 29 18200866370343713433
21421861 104 17973445399562324363
22113638 7 18337109076433527756
23558518 356 17686333578759848298
23559900 14 18200310052373749456
3178227 256 18337123357969998627
335352 9 18411981394410593350
338550 245 18048316944724772839
350125 39 18122628249800227706
3882209 13 16759683914219836926
484989 97 18121494928633418671
59755656 215 18267306430715718718

> <PUBCHEM_SHAPE_MULTIPOLES>
606.3
8.29
5.7
0.84
0
2.34
-0.16
-0.29
0.92
0
-1.34
0
-0.68
0

> <PUBCHEM_SHAPE_SELFOVERLAP>
1427.446

> <PUBCHEM_SHAPE_VOLUME>
303

> <PUBCHEM_COORDINATE_TYPE>
2
5
10

$$$$
