135444250
  -OEChem-10062121553D

 37 39  0     0  0  0  0  0  0999 V2000
    0.2121    0.7195    0.0066 S   0  0  0  0  0  0  0  0  0  0  0  0
   -6.2501    1.1400   -0.0278 O   0  0  0  0  0  0  0  0  0  0  0  0
   -5.0280    0.3407    2.3377 O   0  0  0  0  0  0  0  0  0  0  0  0
    1.2284   -2.9636   -0.2510 O   0  0  0  0  0  0  0  0  0  0  0  0
    2.2241   -0.8662   -0.0916 N   0  0  0  0  0  0  0  0  0  0  0  0
    2.8065    1.4070    0.0755 N   0  0  0  0  0  0  0  0  0  0  0  0
   -2.6045   -0.8445   -0.1291 C   0  0  0  0  0  0  0  0  0  0  0  0
   -0.1054   -0.9713   -0.1182 C   0  0  0  0  0  0  0  0  0  0  0  0
   -1.3276   -1.5399   -0.1688 C   0  0  0  0  0  0  0  0  0  0  0  0
   -3.2160   -0.5794    1.0961 C   0  0  0  0  0  0  0  0  0  0  0  0
   -3.2178   -0.4432   -1.3159 C   0  0  0  0  0  0  0  0  0  0  0  0
   -4.4407    0.0872    1.1348 C   0  0  0  0  0  0  0  0  0  0  0  0
    1.1612   -1.7466   -0.1636 C   0  0  0  0  0  0  0  0  0  0  0  0
   -5.0540    0.4884   -0.0520 C   0  0  0  0  0  0  0  0  0  0  0  0
    1.9334    0.4664    0.0016 C   0  0  0  0  0  0  0  0  0  0  0  0
   -4.4426    0.2231   -1.2773 C   0  0  0  0  0  0  0  0  0  0  0  0
    4.1535    0.9991    0.0566 C   0  0  0  0  0  0  0  0  0  0  0  0
    4.8303    0.8832   -1.1575 C   0  0  0  0  0  0  0  0  0  0  0  0
    4.8115    0.7103    1.2522 C   0  0  0  0  0  0  0  0  0  0  0  0
    6.1650    0.4784   -1.1761 C   0  0  0  0  0  0  0  0  0  0  0  0
    6.1463    0.3059    1.2336 C   0  0  0  0  0  0  0  0  0  0  0  0
    6.8232    0.1900    0.0195 C   0  0  0  0  0  0  0  0  0  0  0  0
   -6.8089    1.5154   -1.2854 C   0  0  0  0  0  0  0  0  0  0  0  0
   -1.4115   -2.6218   -0.2486 H   0  0  0  0  0  0  0  0  0  0  0  0
   -2.7394   -0.8923    2.0229 H   0  0  0  0  0  0  0  0  0  0  0  0
   -2.7530   -0.6435   -2.2785 H   0  0  0  0  0  0  0  0  0  0  0  0
   -4.8598    0.5047   -2.2380 H   0  0  0  0  0  0  0  0  0  0  0  0
    3.1718   -1.2268   -0.1100 H   0  0  0  0  0  0  0  0  0  0  0  0
    4.3263    1.1062   -2.0944 H   0  0  0  0  0  0  0  0  0  0  0  0
    4.2929    0.7980    2.2033 H   0  0  0  0  0  0  0  0  0  0  0  0
    6.6919    0.3881   -2.1214 H   0  0  0  0  0  0  0  0  0  0  0  0
    6.6587    0.0812    2.1645 H   0  0  0  0  0  0  0  0  0  0  0  0
    7.8624   -0.1250    0.0050 H   0  0  0  0  0  0  0  0  0  0  0  0
   -4.4614   -0.0081    3.0471 H   0  0  0  0  0  0  0  0  0  0  0  0
   -6.1726    2.2357   -1.8109 H   0  0  0  0  0  0  0  0  0  0  0  0
   -7.0439    0.6399   -1.9002 H   0  0  0  0  0  0  0  0  0  0  0  0
   -7.7575    2.0217   -1.0781 H   0  0  0  0  0  0  0  0  0  0  0  0
  1  8  1  0  0  0  0
  1 15  1  0  0  0  0
  2 14  1  0  0  0  0
  2 23  1  0  0  0  0
  3 12  1  0  0  0  0
  3 34  1  0  0  0  0
  4 13  2  0  0  0  0
  5 13  1  0  0  0  0
  5 15  1  0  0  0  0
  5 28  1  0  0  0  0
  6 15  2  0  0  0  0
  6 17  1  0  0  0  0
  7  9  1  0  0  0  0
  7 10  2  0  0  0  0
  7 11  1  0  0  0  0
  8  9  2  3  0  0  0
  8 13  1  0  0  0  0
  9 24  1  0  0  0  0
 10 12  1  0  0  0  0
 10 25  1  0  0  0  0
 11 16  2  0  0  0  0
 11 26  1  0  0  0  0
 12 14  2  0  0  0  0
 14 16  1  0  0  0  0
 16 27  1  0  0  0  0
 17 18  2  0  0  0  0
 17 19  1  0  0  0  0
 18 20  1  0  0  0  0
 18 29  1  0  0  0  0
 19 21  2  0  0  0  0
 19 30  1  0  0  0  0
 20 22  2  0  0  0  0
 20 31  1  0  0  0  0
 21 22  1  0  0  0  0
 21 32  1  0  0  0  0
 22 33  1  0  0  0  0
 23 35  1  0  0  0  0
 23 36  1  0  0  0  0
 23 37  1  0  0  0  0
M  END
> <PUBCHEM_COMPOUND_CID>
135444250

> <PUBCHEM_CONFORMER_RMSD>
0.6

> <PUBCHEM_CONFORMER_DIVERSEORDER>
1
8
4
6
7
5
3
2

> <PUBCHEM_MMFF94_PARTIAL_CHARGES>
34
1 -0.24
10 -0.15
11 -0.15
12 0.08
13 0.62
14 0.08
15 0.65
16 -0.15
17 0.18
18 -0.15
19 -0.15
2 -0.36
20 -0.15
21 -0.15
22 -0.15
23 0.28
24 0.15
25 0.15
26 0.15
27 0.15
28 0.37
29 0.15
3 -0.53
30 0.15
31 0.15
32 0.15
33 0.15
34 0.45
4 -0.57
5 -0.49
6 -0.63
7 0.03
8 0.12
9 -0.18

> <PUBCHEM_EFFECTIVE_ROTOR_COUNT>
3.4

> <PUBCHEM_PHARMACOPHORE_FEATURES>
7
1 2 acceptor
1 3 donor
1 4 acceptor
1 5 donor
5 1 5 8 13 15 rings
6 17 18 19 20 21 22 rings
6 7 10 11 12 14 16 rings

> <PUBCHEM_HEAVY_ATOM_COUNT>
23

> <PUBCHEM_ATOM_DEF_STEREO_COUNT>
0

> <PUBCHEM_ATOM_UDEF_STEREO_COUNT>
0

> <PUBCHEM_BOND_DEF_STEREO_COUNT>
0

> <PUBCHEM_BOND_UDEF_STEREO_COUNT>
1

> <PUBCHEM_ISOTOPIC_ATOM_COUNT>
0

> <PUBCHEM_COMPONENT_COUNT>
1

> <PUBCHEM_CACTVS_TAUTO_COUNT>
-1

> <PUBCHEM_CONFORMER_ID>
0812B71A00000001

> <PUBCHEM_MMFF94_ENERGY>
71.8851

> <PUBCHEM_FEATURE_SELFOVERLAP>
35.522

> <PUBCHEM_SHAPE_FINGERPRINT>
10 15 17603873316533533757
10670039 82 16917071023406433545
11089746 13 17418092126543371960
11315181 36 17346598616398816057
11646440 116 17917441963616519593
12236239 1 17632856412971812839
12596602 18 15719393949198554460
12778500 126 16515682217754400084
13533116 47 17703797973370933334
13631057 29 18128808828568592271
13668630 136 10015585033965930200
13673619 4 11167932585751653599
13685833 64 9655573028515227693
13947920 75 16558750096793608529
1420 363 11169910585125486916
14251764 18 17385723608492198569
14251764 30 13768193992287566544
14341114 176 15647049365609022764
14350574 20 10447923988597122567
14933364 13 16153427251216676852
15142383 8 17967809445267336052
15183329 4 16917072144192268566
15348495 7 16515689978169596432
15716309 27 12685088185477216800
1601671 61 18334293189043335196
17492 89 10086552974117603340
17780758 139 14418136223482924897
1813 80 11025789856346965658
18222031 100 7925636579306402826
18335252 98 18411982478024727159
19489759 90 16056603165872760155
19784866 170 18040715865859319871
20281389 69 18261392281918254628
20612939 158 18271808964943676191
21150785 3 14333120892784082152
21298829 104 18271807870413019289
23198884 109 16415481545608847933
23402539 116 16917352549806700240
23522609 53 10518865698350330211
23559900 14 14620215486773543891
23569943 247 17701273438438727806
2767999 5 18273213105748062288
2838139 119 18409439298227279149
3009799 131 17132112459489322056
314194 84 8214147343491627264
34797466 226 15051733131213339392
38695281 34 17703793621851898174
4072396 5 18409719652423000418
4938544 92 12685356436919855247
5104073 3 18191300692749932832
5283173 99 15554456175624379538
5385378 56 18338235968705065250
542803 24 16949997054324990676
59755656 215 18343588404552098878
59755656 520 18202291333398145159
7226269 152 18202286926629486792

> <PUBCHEM_SHAPE_MULTIPOLES>
449.61
18.39
1.66
1.39
2.71
0.89
-0.4
-8.88
-0.24
-0.31
0.37
-0.91
-0.18
0.48

> <PUBCHEM_SHAPE_SELFOVERLAP>
967.776

> <PUBCHEM_SHAPE_VOLUME>
248.8

> <PUBCHEM_COORDINATE_TYPE>
2
5
10

$$$$
