25167072
  -OEChem-10052115143D

 45 49  0     0  0  0  0  0  0999 V2000
    1.1611    1.1428   -0.6761 N   0  0  0  0  0  0  0  0  0  0  0  0
    2.5815   -0.7217   -0.1115 N   0  0  0  0  0  0  0  0  0  0  0  0
    1.1229   -2.3759    0.1885 N   0  0  0  0  0  0  0  0  0  0  0  0
    3.4899   -2.8520    0.4798 N   0  0  0  0  0  0  0  0  0  0  0  0
   -5.0457   -0.8204   -0.3480 N   0  0  0  0  0  0  0  0  0  0  0  0
   -5.3942   -0.4903    0.9068 N   0  0  0  0  0  0  0  0  0  0  0  0
   -0.0233    1.9052   -0.3291 C   0  0  0  0  0  0  0  0  0  0  0  0
    0.0446    2.3440    1.1372 C   0  0  0  0  0  0  0  0  0  0  0  0
   -0.1702    3.1059   -1.2691 C   0  0  0  0  0  0  0  0  0  0  0  0
    1.0935    3.4288    1.3823 C   0  0  0  0  0  0  0  0  0  0  0  0
    0.8796    4.1880   -1.0155 C   0  0  0  0  0  0  0  0  0  0  0  0
    0.9025    4.6190    0.4476 C   0  0  0  0  0  0  0  0  0  0  0  0
    1.3416   -0.1850   -0.3351 C   0  0  0  0  0  0  0  0  0  0  0  0
    0.4623   -1.2222   -0.1444 C   0  0  0  0  0  0  0  0  0  0  0  0
    2.4065   -2.0644    0.2063 C   0  0  0  0  0  0  0  0  0  0  0  0
   -0.9610   -1.1364   -0.2694 C   0  0  0  0  0  0  0  0  0  0  0  0
    3.8280   -0.1205   -0.1677 C   0  0  0  0  0  0  0  0  0  0  0  0
   -1.7312   -0.8040    0.8521 C   0  0  0  0  0  0  0  0  0  0  0  0
   -1.5615   -1.3840   -1.5052 C   0  0  0  0  0  0  0  0  0  0  0  0
   -3.1264   -0.7240    0.7082 C   0  0  0  0  0  0  0  0  0  0  0  0
   -3.6986   -0.9755   -0.5339 C   0  0  0  0  0  0  0  0  0  0  0  0
    4.9209   -0.8460    0.0918 C   0  0  0  0  0  0  0  0  0  0  0  0
   -2.9491   -1.3084   -1.6643 C   0  0  0  0  0  0  0  0  0  0  0  0
    4.6504   -2.2704    0.4224 C   0  0  0  0  0  0  0  0  0  0  0  0
   -4.2240   -0.4327    1.5464 C   0  0  0  0  0  0  0  0  0  0  0  0
   -0.9275    1.3221   -0.4898 H   0  0  0  0  0  0  0  0  0  0  0  0
    0.2500    1.4919    1.7952 H   0  0  0  0  0  0  0  0  0  0  0  0
   -0.9374    2.7362    1.4322 H   0  0  0  0  0  0  0  0  0  0  0  0
   -1.1662    3.5465   -1.1312 H   0  0  0  0  0  0  0  0  0  0  0  0
   -0.1102    2.7811   -2.3151 H   0  0  0  0  0  0  0  0  0  0  0  0
    2.0983    3.0115    1.2442 H   0  0  0  0  0  0  0  0  0  0  0  0
    1.0330    3.7671    2.4230 H   0  0  0  0  0  0  0  0  0  0  0  0
    0.6635    5.0575   -1.6471 H   0  0  0  0  0  0  0  0  0  0  0  0
    1.8730    3.8302   -1.3097 H   0  0  0  0  0  0  0  0  0  0  0  0
   -0.0384    5.1270    0.6925 H   0  0  0  0  0  0  0  0  0  0  0  0
    1.7074    5.3455    0.6057 H   0  0  0  0  0  0  0  0  0  0  0  0
    1.9783    1.6999   -0.9086 H   0  0  0  0  0  0  0  0  0  0  0  0
    3.8933    0.9306   -0.4191 H   0  0  0  0  0  0  0  0  0  0  0  0
   -1.2699   -0.6144    1.8175 H   0  0  0  0  0  0  0  0  0  0  0  0
   -0.9544   -1.6414   -2.3714 H   0  0  0  0  0  0  0  0  0  0  0  0
    5.9307   -0.4638    0.0735 H   0  0  0  0  0  0  0  0  0  0  0  0
   -3.4172   -1.5001   -2.6233 H   0  0  0  0  0  0  0  0  0  0  0  0
    5.5492   -2.8718    0.6367 H   0  0  0  0  0  0  0  0  0  0  0  0
   -4.2177   -0.1805    2.5974 H   0  0  0  0  0  0  0  0  0  0  0  0
   -5.7808   -0.9253   -1.0361 H   0  0  0  0  0  0  0  0  0  0  0  0
  1  7  1  0  0  0  0
  1 13  1  0  0  0  0
  1 37  1  0  0  0  0
  2 13  1  0  0  0  0
  2 15  1  0  0  0  0
  2 17  1  0  0  0  0
  3 14  1  0  0  0  0
  3 15  2  0  0  0  0
  4 15  1  0  0  0  0
  4 24  2  0  0  0  0
  5  6  1  0  0  0  0
  5 21  1  0  0  0  0
  5 45  1  0  0  0  0
  6 25  2  0  0  0  0
  7  8  1  0  0  0  0
  7  9  1  0  0  0  0
  7 26  1  0  0  0  0
  8 10  1  0  0  0  0
  8 27  1  0  0  0  0
  8 28  1  0  0  0  0
  9 11  1  0  0  0  0
  9 29  1  0  0  0  0
  9 30  1  0  0  0  0
 10 12  1  0  0  0  0
 10 31  1  0  0  0  0
 10 32  1  0  0  0  0
 11 12  1  0  0  0  0
 11 33  1  0  0  0  0
 11 34  1  0  0  0  0
 12 35  1  0  0  0  0
 12 36  1  0  0  0  0
 13 14  2  0  0  0  0
 14 16  1  0  0  0  0
 16 18  2  0  0  0  0
 16 19  1  0  0  0  0
 17 22  2  0  0  0  0
 17 38  1  0  0  0  0
 18 20  1  0  0  0  0
 18 39  1  0  0  0  0
 19 23  2  0  0  0  0
 19 40  1  0  0  0  0
 20 21  2  0  0  0  0
 20 25  1  0  0  0  0
 21 23  1  0  0  0  0
 22 24  1  0  0  0  0
 22 41  1  0  0  0  0
 23 42  1  0  0  0  0
 24 43  1  0  0  0  0
 25 44  1  0  0  0  0
M  END
> <PUBCHEM_COMPOUND_CID>
25167072

> <PUBCHEM_CONFORMER_RMSD>
0.8

> <PUBCHEM_CONFORMER_DIVERSEORDER>
1
8
16
25
20
17
12
23
21
15
24
11
14
22
5
18
10
19
2
9
6
4
13
3
7

> <PUBCHEM_MMFF94_PARTIAL_CHARGES>
28
1 -0.85
13 -0.07
14 0.17
15 0.31
16 0.05
17 -0.18
18 -0.15
19 -0.15
2 0.33
21 -0.15
22 -0.14
23 -0.15
24 0.38
25 0.14
3 -0.57
37 0.4
38 0.15
39 0.15
4 -0.58
40 0.15
41 0.15
42 0.15
43 0.06
44 0.15
45 0.27
5 0.3
6 -0.71
7 0.37

> <PUBCHEM_EFFECTIVE_ROTOR_COUNT>
4.2

> <PUBCHEM_PHARMACOPHORE_FEATURES>
11
1 1 cation
1 1 donor
1 4 acceptor
1 5 donor
1 6 acceptor
4 2 3 4 15 cation
5 2 3 13 14 15 rings
5 5 6 20 21 25 rings
6 16 18 19 20 21 23 rings
6 2 4 15 17 22 24 rings
6 7 8 9 10 11 12 rings

> <PUBCHEM_HEAVY_ATOM_COUNT>
25

> <PUBCHEM_ATOM_DEF_STEREO_COUNT>
0

> <PUBCHEM_ATOM_UDEF_STEREO_COUNT>
0

> <PUBCHEM_BOND_DEF_STEREO_COUNT>
0

> <PUBCHEM_BOND_UDEF_STEREO_COUNT>
0

> <PUBCHEM_ISOTOPIC_ATOM_COUNT>
0

> <PUBCHEM_COMPONENT_COUNT>
1

> <PUBCHEM_CACTVS_TAUTO_COUNT>
2

> <PUBCHEM_CONFORMER_ID>
018004E000000001

> <PUBCHEM_MMFF94_ENERGY>
53.0759

> <PUBCHEM_FEATURE_SELFOVERLAP>
56.048

> <PUBCHEM_SHAPE_FINGERPRINT>
10162869 55 18202006517917488947
10165383 225 17322144528688543853
10688039 33 18186804629962153628
1100329 8 18194969775810258312
11045515 52 18335978688264657765
11578080 2 17629163127317203977
11582403 64 15118429704192001136
11640471 11 17700140082378078333
12156800 1 12286347313347792745
12166972 35 18201990058911785175
12236239 1 18060418010518013647
12422481 6 17911815573860271955
12553582 1 18411693279805268286
12741549 16 17676479540755973749
12788726 201 17831278524605267011
13004483 165 18339354146128418714
13009979 54 17845936337707162535
13134695 92 18409447003086949511
13140716 1 17906173202055864800
133893 2 18123733516446466055
13540713 5 17681845003978371674
13590594 115 18411698764594549737
13690498 29 17983590602580720782
138480 1 14447403667487314852
13965767 371 17195479307462982923
14347332 77 18197505017938964526
14790565 3 17904487646937501844
14950920 106 18049475744656617243
14955137 171 18270418164296700519
15042514 8 18122345675000529460
15230672 131 17469607773497468012
15238133 3 18190480302198299893
15439362 3 18193832871860216873
17980427 23 17418087754493264495
1813 80 18342468018840185902
18785283 64 17972323077284104353
20600515 1 17968959499347773023
20642791 178 17684373133023400868
20739085 24 18341619217428010634
21041028 32 18336549321956763221
21049683 271 18115600364374375004
21641784 216 18115888321168807868
23175994 123 18259706687922646143
23419403 2 17773004554183199256
23558518 356 17330542151534630951
23559900 14 18040997410378758315
23845131 108 17260470271429125656
283562 15 18190741925826216626
3091708 16 9355908818030040968
345986 75 18042955480972457034
350125 39 18339081468083448154
352729 6 17691673503188222750
4409770 3 17976809896537468749
474 4 18052248785199342865
513202 73 17979649930788453550
5895379 119 16485038867227165249
7164475 11 18193277395524105822
7471813 234 18131061667336315237
79837 15 17258490046876487304
81228 2 18048897207422436386
84936 182 17769092689585691865

> <PUBCHEM_SHAPE_MULTIPOLES>
484.6
8.46
4.87
1.31
3.69
7.68
0.08
-7.76
-1.72
-4.28
-0.02
1.04
0.42
-0.54

> <PUBCHEM_SHAPE_SELFOVERLAP>
1081.3

> <PUBCHEM_SHAPE_VOLUME>
255.9

> <PUBCHEM_COORDINATE_TYPE>
2
5
10

$$$$
