24905225
  -OEChem-10052115163D

 37 40  0     0  0  0  0  0  0999 V2000
    2.6322    1.0359    0.0443 N   0  0  0  0  0  0  0  0  0  0  0  0
    1.3466    1.4002   -0.1173 N   0  0  0  0  0  0  0  0  0  0  0  0
    3.9754   -0.9672    0.2594 N   0  0  0  0  0  0  0  0  0  0  0  0
    2.6086   -2.9850    0.1560 N   0  0  0  0  0  0  0  0  0  0  0  0
    0.2392   -2.9251   -0.1257 N   0  0  0  0  0  0  0  0  0  0  0  0
   -2.6392    0.1618   -1.7815 N   0  0  0  0  0  0  0  0  0  0  0  0
   -3.7823    0.2536    1.6546 N   0  0  0  0  0  0  0  0  0  0  0  0
   -4.7833    0.1719   -0.9209 N   0  0  0  0  0  0  0  0  0  0  0  0
    3.6540    2.0516    0.1355 C   0  0  0  0  0  0  0  0  0  0  0  0
    2.8128   -0.3141    0.1041 C   0  0  0  0  0  0  0  0  0  0  0  0
    1.5542   -0.8740   -0.0281 C   0  0  0  0  0  0  0  0  0  0  0  0
    0.6951    0.2328   -0.1606 C   0  0  0  0  0  0  0  0  0  0  0  0
    3.4445    2.9530    1.3550 C   0  0  0  0  0  0  0  0  0  0  0  0
    3.7387    2.8817   -1.1478 C   0  0  0  0  0  0  0  0  0  0  0  0
   -0.7276    0.2172   -0.3274 C   0  0  0  0  0  0  0  0  0  0  0  0
    1.4733   -2.2623    0.0019 C   0  0  0  0  0  0  0  0  0  0  0  0
   -1.5839    0.2429    0.7619 C   0  0  0  0  0  0  0  0  0  0  0  0
   -1.3045    0.1771   -1.5750 C   0  0  0  0  0  0  0  0  0  0  0  0
   -2.9630    0.2284    0.5876 C   0  0  0  0  0  0  0  0  0  0  0  0
    3.7725   -2.3024    0.2736 C   0  0  0  0  0  0  0  0  0  0  0  0
   -3.4604    0.1868   -0.7226 C   0  0  0  0  0  0  0  0  0  0  0  0
   -5.1043    0.2378    1.4234 C   0  0  0  0  0  0  0  0  0  0  0  0
   -5.5987    0.1974    0.1497 C   0  0  0  0  0  0  0  0  0  0  0  0
    4.6147    1.5384    0.2630 H   0  0  0  0  0  0  0  0  0  0  0  0
    2.5159    3.5293    1.2783 H   0  0  0  0  0  0  0  0  0  0  0  0
    4.2728    3.6621    1.4582 H   0  0  0  0  0  0  0  0  0  0  0  0
    3.3922    2.3590    2.2742 H   0  0  0  0  0  0  0  0  0  0  0  0
    2.8214    3.4554   -1.3208 H   0  0  0  0  0  0  0  0  0  0  0  0
    3.8969    2.2368   -2.0194 H   0  0  0  0  0  0  0  0  0  0  0  0
    4.5730    3.5893   -1.0959 H   0  0  0  0  0  0  0  0  0  0  0  0
   -1.1770    0.2746    1.7718 H   0  0  0  0  0  0  0  0  0  0  0  0
   -0.7081    0.1544   -2.4822 H   0  0  0  0  0  0  0  0  0  0  0  0
    4.6617   -2.9115    0.3954 H   0  0  0  0  0  0  0  0  0  0  0  0
   -0.6232   -2.4136   -0.2410 H   0  0  0  0  0  0  0  0  0  0  0  0
    0.2254   -3.9359   -0.0985 H   0  0  0  0  0  0  0  0  0  0  0  0
   -5.7463    0.2586    2.2943 H   0  0  0  0  0  0  0  0  0  0  0  0
   -6.6610    0.1840   -0.0577 H   0  0  0  0  0  0  0  0  0  0  0  0
  1  2  1  0  0  0  0
  1  9  1  0  0  0  0
  1 10  1  0  0  0  0
  2 12  2  0  0  0  0
  3 10  2  0  0  0  0
  3 20  1  0  0  0  0
  4 16  1  0  0  0  0
  4 20  2  0  0  0  0
  5 16  1  0  0  0  0
  5 34  1  0  0  0  0
  5 35  1  0  0  0  0
  6 18  2  0  0  0  0
  6 21  1  0  0  0  0
  7 19  2  0  0  0  0
  7 22  1  0  0  0  0
  8 21  2  0  0  0  0
  8 23  1  0  0  0  0
  9 13  1  0  0  0  0
  9 14  1  0  0  0  0
  9 24  1  0  0  0  0
 10 11  1  0  0  0  0
 11 12  1  0  0  0  0
 11 16  2  0  0  0  0
 12 15  1  0  0  0  0
 13 25  1  0  0  0  0
 13 26  1  0  0  0  0
 13 27  1  0  0  0  0
 14 28  1  0  0  0  0
 14 29  1  0  0  0  0
 14 30  1  0  0  0  0
 15 17  2  0  0  0  0
 15 18  1  0  0  0  0
 17 19  1  0  0  0  0
 17 31  1  0  0  0  0
 18 32  1  0  0  0  0
 19 21  1  0  0  0  0
 20 33  1  0  0  0  0
 22 23  2  0  0  0  0
 22 36  1  0  0  0  0
 23 37  1  0  0  0  0
M  END
> <PUBCHEM_COMPOUND_CID>
24905225

> <PUBCHEM_CONFORMER_RMSD>
0.6

> <PUBCHEM_CONFORMER_DIVERSEORDER>
1
3
6
4
5
2

> <PUBCHEM_MMFF94_PARTIAL_CHARGES>
27
1 0.31
10 0.11
12 0.23
15 0.05
16 0.41
17 -0.15
18 0.16
19 0.31
2 -0.71
20 0.47
21 0.62
22 0.16
23 0.16
3 -0.57
31 0.15
32 0.15
33 0.15
34 0.4
35 0.4
36 0.15
37 0.15
4 -0.62
5 -0.9
6 -0.62
7 -0.62
8 -0.62
9 0.26

> <PUBCHEM_EFFECTIVE_ROTOR_COUNT>
2

> <PUBCHEM_PHARMACOPHORE_FEATURES>
13
1 2 acceptor
1 5 cation
1 5 donor
1 6 acceptor
1 7 acceptor
3 1 3 10 cation
3 3 4 20 cation
3 6 8 21 cation
3 9 13 14 hydrophobe
5 1 2 10 11 12 rings
6 3 4 10 11 16 20 rings
6 6 15 17 18 19 21 rings
6 7 8 19 21 22 23 rings

> <PUBCHEM_HEAVY_ATOM_COUNT>
23

> <PUBCHEM_ATOM_DEF_STEREO_COUNT>
0

> <PUBCHEM_ATOM_UDEF_STEREO_COUNT>
0

> <PUBCHEM_BOND_DEF_STEREO_COUNT>
0

> <PUBCHEM_BOND_UDEF_STEREO_COUNT>
0

> <PUBCHEM_ISOTOPIC_ATOM_COUNT>
0

> <PUBCHEM_COMPONENT_COUNT>
1

> <PUBCHEM_CACTVS_TAUTO_COUNT>
5

> <PUBCHEM_CONFORMER_ID>
017C060900000001

> <PUBCHEM_MMFF94_ENERGY>
63.3575

> <PUBCHEM_FEATURE_SELFOVERLAP>
66.294

> <PUBCHEM_SHAPE_FINGERPRINT>
10165383 225 18263373645417539100
10912923 1 17918275364056503577
11582403 64 16234422809298898732
12035758 1 18262783130716816586
12107183 9 17694511347332161873
12236239 1 17703786998742736359
12390115 104 17979080714894147380
12403259 415 17894629232276529821
12553582 1 18197211452196623222
12616971 3 18060136514477163205
12644460 14 18410855460481596376
12730499 353 18335710484773847496
12895836 83 17608954301980229340
13140716 1 18337945814068629674
13533116 47 18412266125579097851
13583140 156 18271529818524600481
13631057 29 17911511314514994991
13955234 65 18410571786545063970
14386348 63 17603592881049925443
14739800 52 16844710045742578088
14790565 3 17829903379136113780
14955137 171 18271814454534378950
15238133 3 17060345076354532059
15342168 16 18263085585665035548
15842332 3 17774705541720878727
15961568 22 16371017355094658420
17844677 252 18336550421980451213
1813 80 17914344481012020694
18785283 64 18260550043674667356
19784866 34 18199181974375220696
200 152 18341887442852495799
204376 136 18264772227880083733
20600515 1 15936976352859309701
20645477 70 18334287652334728807
20739085 24 18335712619457567772
21033648 29 17967521368477661197
21065201 7 16443344226591663297
22079108 93 18199472254182171953
22122407 14 18129957689233151009
2255824 54 18341894069865915782
23557571 272 17022901203607321125
23559900 14 16588026770888471838
25147074 1 18270103743079432638
31174 14 18334576789696677798
312423 11 18201168650031144401
3178227 256 18335428937336873410
38570 142 18057340559413766596
4340502 62 18340491170317030099
4409770 3 15464417941578308767
458136 41 18336270136619646948
474 4 18199463436361547472
495365 180 18409727382862882520
5104073 3 18410292549288694763
6034566 193 17755307012654478364
6049 1 17895191039383665141
621550 34 18113616798348457477
633830 44 18131362920252347925
7495541 125 17822013073462763186
77492 1 17775558732726643207
8272917 22 18412549786208930389
9981440 41 15834206285217280936
9999458 23 18260832601052020438

> <PUBCHEM_SHAPE_MULTIPOLES>
433.48
10.4
2.92
1.28
10.4
0.68
-0.09
-3.02
1.76
-6.07
0.25
1.06
-0.53
-0.2

> <PUBCHEM_SHAPE_SELFOVERLAP>
973.001

> <PUBCHEM_SHAPE_VOLUME>
224.5

> <PUBCHEM_COORDINATE_TYPE>
2
5
10

$$$$
