17758240
  -OEChem-10062121573D

 42 45  0     0  0  0  0  0  0999 V2000
    3.4071    0.5964    2.6099 Cl  0  0  0  0  0  0  0  0  0  0  0  0
   -4.9598   -0.5978    1.2305 F   0  0  0  0  0  0  0  0  0  0  0  0
    5.3652    0.7403    0.3886 F   0  0  0  0  0  0  0  0  0  0  0  0
   -1.7457   -3.1688   -1.2059 N   0  0  0  0  0  0  0  0  0  0  0  0
    0.1344    1.5923   -1.2017 N   0  0  0  0  0  0  0  0  0  0  0  0
   -3.4965    1.6860    0.9099 N   0  0  0  0  0  0  0  0  0  0  0  0
    1.6813   -2.5389   -0.4358 N   0  0  0  0  0  0  0  0  0  0  0  0
    1.7904   -3.6758    1.4687 N   0  0  0  0  0  0  0  0  0  0  0  0
   -0.2356    5.0330   -0.2052 N   0  0  0  0  0  0  0  0  0  0  0  0
   -1.8441    0.4412   -0.3262 C   0  0  0  0  0  0  0  0  0  0  0  0
   -1.0935    1.6130   -0.4910 C   0  0  0  0  0  0  0  0  0  0  0  0
   -2.1801   -1.9371   -0.6758 C   0  0  0  0  0  0  0  0  0  0  0  0
   -3.0561    0.5242    0.3909 C   0  0  0  0  0  0  0  0  0  0  0  0
   -1.4149   -0.7883   -0.8542 C   0  0  0  0  0  0  0  0  0  0  0  0
   -0.3844   -3.4247   -1.5639 C   0  0  0  0  0  0  0  0  0  0  0  0
   -3.3749   -1.8626    0.0293 C   0  0  0  0  0  0  0  0  0  0  0  0
   -3.8015   -0.6402    0.5542 C   0  0  0  0  0  0  0  0  0  0  0  0
   -1.5446    2.8116    0.0426 C   0  0  0  0  0  0  0  0  0  0  0  0
    0.6025   -3.3776   -0.4385 C   0  0  0  0  0  0  0  0  0  0  0  0
    1.4590    1.3759   -0.7941 C   0  0  0  0  0  0  0  0  0  0  0  0
   -2.7421    2.7941    0.7286 C   0  0  0  0  0  0  0  0  0  0  0  0
    1.7441    1.1233    0.5476 C   0  0  0  0  0  0  0  0  0  0  0  0
    2.4915    1.4134   -1.7313 C   0  0  0  0  0  0  0  0  0  0  0  0
    0.6913   -4.0691    0.7468 C   0  0  0  0  0  0  0  0  0  0  0  0
    2.3646   -2.7535    0.7287 C   0  0  0  0  0  0  0  0  0  0  0  0
    3.0614    0.9080    0.9524 C   0  0  0  0  0  0  0  0  0  0  0  0
    3.8090    1.1984   -1.3265 C   0  0  0  0  0  0  0  0  0  0  0  0
   -0.8220    4.0377   -0.0941 C   0  0  0  0  0  0  0  0  0  0  0  0
    4.0940    0.9456    0.0153 C   0  0  0  0  0  0  0  0  0  0  0  0
   -0.4958   -0.8293   -1.4295 H   0  0  0  0  0  0  0  0  0  0  0  0
   -0.0702   -2.7704   -2.3868 H   0  0  0  0  0  0  0  0  0  0  0  0
   -0.3371   -4.4373   -1.9858 H   0  0  0  0  0  0  0  0  0  0  0  0
   -2.3652   -3.9627   -1.0809 H   0  0  0  0  0  0  0  0  0  0  0  0
   -3.9880   -2.7472    0.1810 H   0  0  0  0  0  0  0  0  0  0  0  0
    0.0149    1.7616   -2.1962 H   0  0  0  0  0  0  0  0  0  0  0  0
   -3.1574    3.6940    1.1734 H   0  0  0  0  0  0  0  0  0  0  0  0
    1.9324   -1.8798   -1.1607 H   0  0  0  0  0  0  0  0  0  0  0  0
    0.9484    1.0899    1.2881 H   0  0  0  0  0  0  0  0  0  0  0  0
    2.2837    1.6087   -2.7803 H   0  0  0  0  0  0  0  0  0  0  0  0
    0.0206   -4.8301    1.1188 H   0  0  0  0  0  0  0  0  0  0  0  0
    3.2716   -2.2194    0.9705 H   0  0  0  0  0  0  0  0  0  0  0  0
    4.6129    1.2271   -2.0560 H   0  0  0  0  0  0  0  0  0  0  0  0
  1 26  1  0  0  0  0
  2 17  1  0  0  0  0
  3 29  1  0  0  0  0
  4 12  1  0  0  0  0
  4 15  1  0  0  0  0
  4 33  1  0  0  0  0
  5 11  1  0  0  0  0
  5 20  1  0  0  0  0
  5 35  1  0  0  0  0
  6 13  2  0  0  0  0
  6 21  1  0  0  0  0
  7 19  1  0  0  0  0
  7 25  1  0  0  0  0
  7 37  1  0  0  0  0
  8 24  1  0  0  0  0
  8 25  2  0  0  0  0
  9 28  3  0  0  0  0
 10 11  2  0  0  0  0
 10 13  1  0  0  0  0
 10 14  1  0  0  0  0
 11 18  1  0  0  0  0
 12 14  2  0  0  0  0
 12 16  1  0  0  0  0
 13 17  1  0  0  0  0
 14 30  1  0  0  0  0
 15 19  1  0  0  0  0
 15 31  1  0  0  0  0
 15 32  1  0  0  0  0
 16 17  2  0  0  0  0
 16 34  1  0  0  0  0
 18 21  2  0  0  0  0
 18 28  1  0  0  0  0
 19 24  2  0  0  0  0
 20 22  2  0  0  0  0
 20 23  1  0  0  0  0
 21 36  1  0  0  0  0
 22 26  1  0  0  0  0
 22 38  1  0  0  0  0
 23 27  2  0  0  0  0
 23 39  1  0  0  0  0
 24 40  1  0  0  0  0
 25 41  1  0  0  0  0
 26 29  2  0  0  0  0
 27 29  1  0  0  0  0
 27 42  1  0  0  0  0
M  END
> <PUBCHEM_COMPOUND_CID>
17758240

> <PUBCHEM_CONFORMER_RMSD>
0.8

> <PUBCHEM_CONFORMER_DIVERSEORDER>
1
170
183
27
218
100
124
134
115
32
162
26
197
107
198
79
82
4
195
131
174
34
67
118
187
181
105
36
63
13
194
90
42
126
211
136
61
11
130
141
212
191
68
88
182
80
145
165
91
28
220
200
207
188
114
202
217
138
154
97
213
41
122
171
47
46
104
210
173
40
175
59
120
135
214
66
69
216
3
54
167
132
146
37
55
110
21
193
75
7
147
93
39
101
219
51
24
20
185
178
86
180
106
169
159
50
116
177
23
15
152
158
78
143
76
6
102
60
166
139
31
18
155
140
192
38
179
57
81
206
33
128
208
163
103
153
64
203
108
85
184
45
74
14
53
121
29
12
123
16
94
62
73
133
71
89
25
22
99
196
83
151
112
111
87
65
49
44
72
142
35
190
113
157
144
150
201
58
117
2
204
84
161
9
168
96
95
70
119
48
19
209
98
5
17
148
189
8
137
30
56
10
77
149
127
129
160
215
125
43
156
52
164
205
186
109
176
172
199
92

> <PUBCHEM_MMFF94_PARTIAL_CHARGES>
39
1 -0.18
11 0.1
12 0.1
13 0.31
14 -0.15
15 0.55
16 -0.15
17 0.19
18 0.07
19 -0.33
2 -0.19
20 0.1
21 0.16
22 -0.15
23 -0.15
24 0.08
25 0.04
26 0.18
27 -0.15
28 0.48
29 0.19
3 -0.19
30 0.15
33 0.4
34 0.15
35 0.4
36 0.15
37 0.27
38 0.15
39 0.15
4 -0.87
40 0.15
41 0.15
42 0.15
5 -0.6
6 -0.62
7 0.03
8 -0.57
9 -0.56

> <PUBCHEM_EFFECTIVE_ROTOR_COUNT>
5

> <PUBCHEM_PHARMACOPHORE_FEATURES>
12
1 4 cation
1 4 donor
1 5 cation
1 5 donor
1 6 acceptor
1 7 donor
1 9 acceptor
3 7 8 25 cation
5 7 8 19 24 25 rings
6 10 12 13 14 16 17 rings
6 20 22 23 26 27 29 rings
6 6 10 11 13 18 21 rings

> <PUBCHEM_HEAVY_ATOM_COUNT>
29

> <PUBCHEM_ATOM_DEF_STEREO_COUNT>
0

> <PUBCHEM_ATOM_UDEF_STEREO_COUNT>
0

> <PUBCHEM_BOND_DEF_STEREO_COUNT>
0

> <PUBCHEM_BOND_UDEF_STEREO_COUNT>
0

> <PUBCHEM_ISOTOPIC_ATOM_COUNT>
0

> <PUBCHEM_COMPONENT_COUNT>
1

> <PUBCHEM_CACTVS_TAUTO_COUNT>
6

> <PUBCHEM_CONFORMER_ID>
010EF82000000001

> <PUBCHEM_MMFF94_ENERGY>
91.7513

> <PUBCHEM_FEATURE_SELFOVERLAP>
60.928

> <PUBCHEM_SHAPE_FINGERPRINT>
10675989 125 17764006353781333015
1100329 8 17979076316652236719
12422481 6 17905576962718742674
12553582 1 18338231690801294989
12788726 201 17979085108138737238
13122387 1 17690561883784174147
13140716 1 17979082905411253825
14178342 30 18336820876023555352
15420108 30 18059306392157827231
19319366 153 17460876452253278832
20600515 1 18128541667768137573
20905425 154 18269567047775509415
21796203 349 17829365649161751904
3178227 256 18122083146058375011
338550 245 18335708234812449206
445580 8 18335129946871632234
5265222 85 18342189894982276276
57091435 65 18336834074125960982
602551 16 18271810176577932732
6287921 2 18338793408157521130
9896288 288 18341627996183155297

> <PUBCHEM_SHAPE_MULTIPOLES>
554.24
7.24
6.01
1.56
1.92
1.12
-0.36
-1.38
-2.3
-0.83
0.25
1.19
0.25
-1.22

> <PUBCHEM_SHAPE_SELFOVERLAP>
1223.159

> <PUBCHEM_SHAPE_VOLUME>
298.8

> <PUBCHEM_COORDINATE_TYPE>
2
5
10

$$$$
