49830399
  -OEChem-10052115183D

 54 58  0     0  0  0  0  0  0999 V2000
    6.6386   -0.7054   -0.0095 Cl  0  0  0  0  0  0  0  0  0  0  0  0
   -3.8260   -0.9426    0.0952 N   0  0  0  0  0  0  0  0  0  0  0  0
   -6.4631    0.1349   -0.1151 N   0  0  0  0  0  0  0  0  0  0  0  0
    1.3431   -3.0930   -0.0021 N   0  0  0  0  0  0  0  0  0  0  0  0
    4.0062    0.7890    0.0469 N   0  0  0  0  0  0  0  0  0  0  0  0
    2.6618   -1.1560    0.0233 N   0  0  0  0  0  0  0  0  0  0  0  0
    0.0554    4.6144    0.0261 N   0  0  0  0  0  0  0  0  0  0  0  0
    3.6729   -3.3427   -0.0339 N   0  0  0  0  0  0  0  0  0  0  0  0
   -0.9593    4.0307   -0.6332 N   0  0  0  0  0  0  0  0  0  0  0  0
   -4.9868   -1.8381    0.0890 C   0  0  0  0  0  0  0  0  0  0  0  0
   -4.0362    0.3744   -0.5191 C   0  0  0  0  0  0  0  0  0  0  0  0
   -6.2268   -1.1140    0.6192 C   0  0  0  0  0  0  0  0  0  0  0  0
   -5.3062    1.0270    0.0317 C   0  0  0  0  0  0  0  0  0  0  0  0
   -2.5343   -1.4804    0.0715 C   0  0  0  0  0  0  0  0  0  0  0  0
   -7.6797    0.7897    0.3643 C   0  0  0  0  0  0  0  0  0  0  0  0
   -2.2989   -2.7019   -0.5594 C   0  0  0  0  0  0  0  0  0  0  0  0
   -1.4822   -0.7948    0.6785 C   0  0  0  0  0  0  0  0  0  0  0  0
   -1.0114   -3.2380   -0.5831 C   0  0  0  0  0  0  0  0  0  0  0  0
   -0.1947   -1.3307    0.6549 C   0  0  0  0  0  0  0  0  0  0  0  0
    0.0407   -2.5523    0.0241 C   0  0  0  0  0  0  0  0  0  0  0  0
    2.6214   -2.5018   -0.0042 C   0  0  0  0  0  0  0  0  0  0  0  0
    0.8454    2.6319   -0.4782 C   0  0  0  0  0  0  0  0  0  0  0  0
    3.0430    1.8102    0.0788 C   0  0  0  0  0  0  0  0  0  0  0  0
    1.1683    3.8276    0.1535 C   0  0  0  0  0  0  0  0  0  0  0  0
    1.7953    1.5978   -0.5211 C   0  0  0  0  0  0  0  0  0  0  0  0
    3.9015   -0.6235    0.0201 C   0  0  0  0  0  0  0  0  0  0  0  0
    3.3410    3.0210    0.7068 C   0  0  0  0  0  0  0  0  0  0  0  0
    2.4058    4.0598    0.7577 C   0  0  0  0  0  0  0  0  0  0  0  0
   -0.4748    2.8248   -0.9385 C   0  0  0  0  0  0  0  0  0  0  0  0
    5.0587   -1.3747   -0.0088 C   0  0  0  0  0  0  0  0  0  0  0  0
    4.8815   -2.7430   -0.0354 C   0  0  0  0  0  0  0  0  0  0  0  0
   -4.8062   -2.7126    0.7265 H   0  0  0  0  0  0  0  0  0  0  0  0
   -5.1783   -2.1945   -0.9314 H   0  0  0  0  0  0  0  0  0  0  0  0
   -4.1128    0.2567   -1.6078 H   0  0  0  0  0  0  0  0  0  0  0  0
   -3.1968    1.0513   -0.3254 H   0  0  0  0  0  0  0  0  0  0  0  0
   -7.0883   -1.7837    0.5083 H   0  0  0  0  0  0  0  0  0  0  0  0
   -6.1042   -0.9150    1.6926 H   0  0  0  0  0  0  0  0  0  0  0  0
   -5.1536    1.2947    1.0861 H   0  0  0  0  0  0  0  0  0  0  0  0
   -5.4792    1.9590   -0.5200 H   0  0  0  0  0  0  0  0  0  0  0  0
   -7.8755    1.7030   -0.2085 H   0  0  0  0  0  0  0  0  0  0  0  0
   -7.6184    1.0549    1.4260 H   0  0  0  0  0  0  0  0  0  0  0  0
   -8.5486    0.1377    0.2214 H   0  0  0  0  0  0  0  0  0  0  0  0
   -3.0910   -3.2560   -1.0549 H   0  0  0  0  0  0  0  0  0  0  0  0
   -1.6500    0.1465    1.1958 H   0  0  0  0  0  0  0  0  0  0  0  0
   -0.8398   -4.1886   -1.0818 H   0  0  0  0  0  0  0  0  0  0  0  0
    0.5824   -0.7898    1.1843 H   0  0  0  0  0  0  0  0  0  0  0  0
    1.3768   -4.0958   -0.1594 H   0  0  0  0  0  0  0  0  0  0  0  0
    1.5480    0.6900   -1.0581 H   0  0  0  0  0  0  0  0  0  0  0  0
    4.3136    3.1743    1.1703 H   0  0  0  0  0  0  0  0  0  0  0  0
    2.6352    5.0008    1.2451 H   0  0  0  0  0  0  0  0  0  0  0  0
    4.9319    1.1033    0.3280 H   0  0  0  0  0  0  0  0  0  0  0  0
   -1.1023    2.1350   -1.4849 H   0  0  0  0  0  0  0  0  0  0  0  0
   -0.0764    5.5587    0.3665 H   0  0  0  0  0  0  0  0  0  0  0  0
    5.7243   -3.4270   -0.0588 H   0  0  0  0  0  0  0  0  0  0  0  0
  1 30  1  0  0  0  0
  2 10  1  0  0  0  0
  2 11  1  0  0  0  0
  2 14  1  0  0  0  0
  3 12  1  0  0  0  0
  3 13  1  0  0  0  0
  3 15  1  0  0  0  0
  4 20  1  0  0  0  0
  4 21  1  0  0  0  0
  4 47  1  0  0  0  0
  5 23  1  0  0  0  0
  5 26  1  0  0  0  0
  5 51  1  0  0  0  0
  6 21  1  0  0  0  0
  6 26  2  0  0  0  0
  7  9  1  0  0  0  0
  7 24  1  0  0  0  0
  7 53  1  0  0  0  0
  8 21  2  0  0  0  0
  8 31  1  0  0  0  0
  9 29  2  0  0  0  0
 10 12  1  0  0  0  0
 10 32  1  0  0  0  0
 10 33  1  0  0  0  0
 11 13  1  0  0  0  0
 11 34  1  0  0  0  0
 11 35  1  0  0  0  0
 12 36  1  0  0  0  0
 12 37  1  0  0  0  0
 13 38  1  0  0  0  0
 13 39  1  0  0  0  0
 14 16  2  0  0  0  0
 14 17  1  0  0  0  0
 15 40  1  0  0  0  0
 15 41  1  0  0  0  0
 15 42  1  0  0  0  0
 16 18  1  0  0  0  0
 16 43  1  0  0  0  0
 17 19  2  0  0  0  0
 17 44  1  0  0  0  0
 18 20  2  0  0  0  0
 18 45  1  0  0  0  0
 19 20  1  0  0  0  0
 19 46  1  0  0  0  0
 22 24  2  0  0  0  0
 22 25  1  0  0  0  0
 22 29  1  0  0  0  0
 23 25  2  0  0  0  0
 23 27  1  0  0  0  0
 24 28  1  0  0  0  0
 25 48  1  0  0  0  0
 26 30  1  0  0  0  0
 27 28  2  0  0  0  0
 27 49  1  0  0  0  0
 28 50  1  0  0  0  0
 29 52  1  0  0  0  0
 30 31  2  0  0  0  0
 31 54  1  0  0  0  0
M  END
> <PUBCHEM_COMPOUND_CID>
49830399

> <PUBCHEM_CONFORMER_RMSD>
1

> <PUBCHEM_CONFORMER_DIVERSEORDER>
1
67
59
78
84
20
74
24
25
36
39
79
81
13
56
35
47
38
72
42
4
62
48
9
66
68
29
70
18
5
11
34
54
51
83
86
63
85
7
45
80
77
6
55
64
37
32
31
12
65
71
40
15
8
87
16
17
44
69
50
82
21
10
27
52
60
46
76
57
41
58
2
49
53
43
19
22
30
88
28
75
23
73
3
61
26
14
33

> <PUBCHEM_MMFF94_PARTIAL_CHARGES>
42
1 -0.18
10 0.37
11 0.37
12 0.27
13 0.27
14 0.1
15 0.27
16 -0.15
17 -0.15
18 -0.15
19 -0.15
2 -0.84
20 0.1
21 0.72
23 0.1
24 -0.15
25 -0.15
26 0.41
27 -0.15
28 -0.15
29 0.14
3 -0.81
30 0.18
31 0.16
4 -0.6
43 0.15
44 0.15
45 0.15
46 0.15
47 0.4
48 0.15
49 0.15
5 -0.6
50 0.15
51 0.4
52 0.15
53 0.27
54 0.15
6 -0.62
7 0.3
8 -0.62
9 -0.71

> <PUBCHEM_EFFECTIVE_ROTOR_COUNT>
6.2

> <PUBCHEM_PHARMACOPHORE_FEATURES>
12
1 2 cation
1 3 cation
1 4 donor
1 5 donor
1 7 donor
1 9 acceptor
4 4 6 8 21 cation
5 7 9 22 24 29 rings
6 14 16 17 18 19 20 rings
6 2 3 10 11 12 13 rings
6 22 23 24 25 27 28 rings
6 6 8 21 26 30 31 rings

> <PUBCHEM_HEAVY_ATOM_COUNT>
31

> <PUBCHEM_ATOM_DEF_STEREO_COUNT>
0

> <PUBCHEM_ATOM_UDEF_STEREO_COUNT>
0

> <PUBCHEM_BOND_DEF_STEREO_COUNT>
0

> <PUBCHEM_BOND_UDEF_STEREO_COUNT>
0

> <PUBCHEM_ISOTOPIC_ATOM_COUNT>
0

> <PUBCHEM_COMPONENT_COUNT>
1

> <PUBCHEM_CACTVS_TAUTO_COUNT>
18

> <PUBCHEM_CONFORMER_ID>
02F859FF00000001

> <PUBCHEM_MMFF94_ENERGY>
110.9905

> <PUBCHEM_FEATURE_SELFOVERLAP>
60.992

> <PUBCHEM_SHAPE_FINGERPRINT>
10074138 170 15881480315628818219
10439779 11 17980750855749847584
10483366 6 18190478223994025964
11456790 92 18114745928113015659
12717326 135 15938349488906898677
12788726 201 18261673658923088282
12925494 130 18337390556596807819
13402501 40 18334856104083084732
138480 1 18338516456171035390
14028597 1 17531795854467811298
14117953 113 18343023268202160070
14681490 219 18335983077768687392
14725015 67 18262227820871859290
150020 26 18044952396125813129
15274700 256 18336823097598099970
15274700 259 17388238059132781029
15320467 1 18410855451580444765
15400415 2 17762337320632309545
15419008 47 17967533437620132293
15420108 30 17839726399634509650
15483637 11 17977383828696424541
16087824 20 18339081488603749340
16760501 71 18410296951983723731
18335252 114 18338790135914232839
18681886 176 18413383250578468523
19301679 30 17903911159616870970
20567600 299 18196650915803357832
21133410 127 17753320174191042805
21298829 104 18342737472208735616
21344244 78 17900236651458605034
22122407 14 18340782472558826539
23559900 14 18410852175122285163
24771293 8 18128800006620707674
3014063 31 18409446947363306716
4144715 1 18188218723008423811
513532 50 18129956675303747182
5265222 85 17615138014755537252
550186 83 17750213924644850520
58902169 19 18059561478765846847
6443956 14 18408887373459940900
653340 110 18196084444309232328
9961470 85 18269548519471282249
9981440 41 17402043899827393818

> <PUBCHEM_SHAPE_MULTIPOLES>
599.99
14.52
6.06
0.77
17.42
5.14
0
-4.56
-1.52
-4.75
0.25
0.11
0.19
0.53

> <PUBCHEM_SHAPE_SELFOVERLAP>
1306.302

> <PUBCHEM_SHAPE_VOLUME>
325.2

> <PUBCHEM_COORDINATE_TYPE>
2
5
10

$$$$
