11723489
  -OEChem-10062122033D

 43 45  0     0  0  0  0  0  0999 V2000
    1.6939   -2.2336    0.2940 S   0  0  0  0  0  0  0  0  0  0  0  0
    5.3613   -0.9601   -0.0157 O   0  0  0  0  0  0  0  0  0  0  0  0
   -2.9879   -0.3696   -0.0415 N   0  0  0  0  0  0  0  0  0  0  0  0
   -5.7765   -0.9085    0.2461 N   0  0  0  0  0  0  0  0  0  0  0  0
   -0.7786   -1.2629    0.1186 N   0  0  0  0  0  0  0  0  0  0  0  0
    3.3994    1.1749   -0.4101 N   0  0  0  0  0  0  0  0  0  0  0  0
    4.5015   -3.0132    0.4274 N   0  0  0  0  0  0  0  0  0  0  0  0
   -3.5292   -1.6779   -0.4338 C   0  0  0  0  0  0  0  0  0  0  0  0
   -3.7842    0.3814    0.9352 C   0  0  0  0  0  0  0  0  0  0  0  0
   -5.0042   -1.5543   -0.8143 C   0  0  0  0  0  0  0  0  0  0  0  0
   -5.2507    0.4304    0.5067 C   0  0  0  0  0  0  0  0  0  0  0  0
   -1.6010   -0.1892   -0.0914 C   0  0  0  0  0  0  0  0  0  0  0  0
    0.2540    1.3232   -0.4126 C   0  0  0  0  0  0  0  0  0  0  0  0
    1.1285    0.2378   -0.2008 C   0  0  0  0  0  0  0  0  0  0  0  0
   -1.1178    1.0992   -0.3559 C   0  0  0  0  0  0  0  0  0  0  0  0
    0.7252    2.7146   -0.6991 C   0  0  0  0  0  0  0  0  0  0  0  0
    0.5431   -0.9980    0.0539 C   0  0  0  0  0  0  0  0  0  0  0  0
    2.5566    0.1349   -0.1922 C   0  0  0  0  0  0  0  0  0  0  0  0
    0.9181    3.5330    0.5829 C   0  0  0  0  0  0  0  0  0  0  0  0
    2.9932   -1.1464    0.0632 C   0  0  0  0  0  0  0  0  0  0  0  0
    1.4280    4.9342    0.2862 C   0  0  0  0  0  0  0  0  0  0  0  0
    4.3273   -1.6500    0.1532 C   0  0  0  0  0  0  0  0  0  0  0  0
   -3.4099   -2.3879    0.3946 H   0  0  0  0  0  0  0  0  0  0  0  0
   -2.9832   -2.0771   -1.2977 H   0  0  0  0  0  0  0  0  0  0  0  0
   -3.4252    1.4106    1.0472 H   0  0  0  0  0  0  0  0  0  0  0  0
   -3.6939   -0.0999    1.9175 H   0  0  0  0  0  0  0  0  0  0  0  0
   -5.1078   -0.9884   -1.7487 H   0  0  0  0  0  0  0  0  0  0  0  0
   -5.4135   -2.5537   -0.9980 H   0  0  0  0  0  0  0  0  0  0  0  0
   -5.8421    0.8982    1.3014 H   0  0  0  0  0  0  0  0  0  0  0  0
   -5.3624    1.0564   -0.3876 H   0  0  0  0  0  0  0  0  0  0  0  0
   -6.7513   -0.8365   -0.0441 H   0  0  0  0  0  0  0  0  0  0  0  0
   -1.8098    1.9199   -0.5296 H   0  0  0  0  0  0  0  0  0  0  0  0
    1.6009    2.7276   -1.3510 H   0  0  0  0  0  0  0  0  0  0  0  0
   -0.0372    3.2212   -1.3092 H   0  0  0  0  0  0  0  0  0  0  0  0
   -0.0304    3.6046    1.1293 H   0  0  0  0  0  0  0  0  0  0  0  0
    1.6278    3.0305    1.2508 H   0  0  0  0  0  0  0  0  0  0  0  0
    2.3960    4.8983   -0.2239 H   0  0  0  0  0  0  0  0  0  0  0  0
    0.7241    5.4811   -0.3490 H   0  0  0  0  0  0  0  0  0  0  0  0
    1.5546    5.4967    1.2164 H   0  0  0  0  0  0  0  0  0  0  0  0
    4.4071    1.0450   -0.4365 H   0  0  0  0  0  0  0  0  0  0  0  0
    3.1279    2.1472   -0.4476 H   0  0  0  0  0  0  0  0  0  0  0  0
    3.7159   -3.6402    0.5682 H   0  0  0  0  0  0  0  0  0  0  0  0
    5.4303   -3.4162    0.4933 H   0  0  0  0  0  0  0  0  0  0  0  0
  1 17  1  0  0  0  0
  1 20  1  0  0  0  0
  2 22  2  0  0  0  0
  3  8  1  0  0  0  0
  3  9  1  0  0  0  0
  3 12  1  0  0  0  0
  4 10  1  0  0  0  0
  4 11  1  0  0  0  0
  4 31  1  0  0  0  0
  5 12  2  0  0  0  0
  5 17  1  0  0  0  0
  6 18  1  0  0  0  0
  6 40  1  0  0  0  0
  6 41  1  0  0  0  0
  7 22  1  0  0  0  0
  7 42  1  0  0  0  0
  7 43  1  0  0  0  0
  8 10  1  0  0  0  0
  8 23  1  0  0  0  0
  8 24  1  0  0  0  0
  9 11  1  0  0  0  0
  9 25  1  0  0  0  0
  9 26  1  0  0  0  0
 10 27  1  0  0  0  0
 10 28  1  0  0  0  0
 11 29  1  0  0  0  0
 11 30  1  0  0  0  0
 12 15  1  0  0  0  0
 13 14  1  0  0  0  0
 13 15  2  0  0  0  0
 13 16  1  0  0  0  0
 14 17  2  0  0  0  0
 14 18  1  0  0  0  0
 15 32  1  0  0  0  0
 16 19  1  0  0  0  0
 16 33  1  0  0  0  0
 16 34  1  0  0  0  0
 18 20  2  0  0  0  0
 19 21  1  0  0  0  0
 19 35  1  0  0  0  0
 19 36  1  0  0  0  0
 20 22  1  0  0  0  0
 21 37  1  0  0  0  0
 21 38  1  0  0  0  0
 21 39  1  0  0  0  0
M  END
> <PUBCHEM_COMPOUND_CID>
11723489

> <PUBCHEM_CONFORMER_RMSD>
0.8

> <PUBCHEM_CONFORMER_DIVERSEORDER>
1
6
7
12
16
14
2
4
11
9
13
3
15
8
5
10

> <PUBCHEM_MMFF94_PARTIAL_CHARGES>
25
1 -0.08
10 0.27
11 0.27
12 0.41
13 -0.14
15 -0.15
16 0.14
17 0.3
18 0.08
2 -0.57
20 -0.05
22 0.71
3 -0.84
31 0.36
32 0.15
4 -0.9
40 0.4
41 0.4
42 0.37
43 0.37
5 -0.57
6 -0.88
7 -0.8
8 0.37
9 0.37

> <PUBCHEM_EFFECTIVE_ROTOR_COUNT>
5.2

> <PUBCHEM_PHARMACOPHORE_FEATURES>
11
1 2 acceptor
1 21 hydrophobe
1 4 cation
1 4 donor
1 6 cation
1 6 donor
1 7 donor
3 3 5 12 cation
5 1 14 17 18 20 rings
6 3 4 8 9 10 11 rings
6 5 12 13 14 15 17 rings

> <PUBCHEM_HEAVY_ATOM_COUNT>
22

> <PUBCHEM_ATOM_DEF_STEREO_COUNT>
0

> <PUBCHEM_ATOM_UDEF_STEREO_COUNT>
0

> <PUBCHEM_BOND_DEF_STEREO_COUNT>
0

> <PUBCHEM_BOND_UDEF_STEREO_COUNT>
0

> <PUBCHEM_ISOTOPIC_ATOM_COUNT>
0

> <PUBCHEM_COMPONENT_COUNT>
1

> <PUBCHEM_CACTVS_TAUTO_COUNT>
5

> <PUBCHEM_CONFORMER_ID>
00B2E2E100000001

> <PUBCHEM_MMFF94_ENERGY>
54.9612

> <PUBCHEM_FEATURE_SELFOVERLAP>
55.896

> <PUBCHEM_SHAPE_FINGERPRINT>
10411042 1 18338233761276276902
11045515 52 18260829241818123084
11265709 11 18410858724393133444
12166972 35 18272932739321170865
12236239 1 18273215283623860171
12403259 226 18334851719280626509
12516196 113 18410855443185929354
12553582 1 18336252458170779315
12760667 363 18115587028796872114
12788726 201 18044937874830673738
13134695 92 18410012156263953453
13140716 1 17976257155505194376
13533116 47 18265616662254692523
13540713 5 17682127578471796458
13590594 115 18409454648493434905
138480 1 18410854390966674384
13862211 1 18334854987481947074
13955234 65 18195247947530032801
14347332 77 18122911928496594878
14739800 52 17273410793201358777
14787075 74 18259707796171810482
15042514 8 18122626046223418580
15196674 1 18409167710112010495
15664445 248 18200330882758984940
15927050 60 17764873885303175220
16087824 20 18050286965079142133
17492 89 18194682798960121963
17980427 23 17775289331372928737
17980427 26 17982441900006617004
1813 80 18341906155428945054
18222031 100 18410844456564822547
18681886 176 18343296002525082987
200 152 18411697664929908651
20028762 73 18272929444839733583
20510252 161 18194679272827999040
20671657 1 18267306615293791245
20832881 197 18334295340668898321
21029758 11 18408602543765404392
21033648 29 17386271204238347549
21041028 32 18339924813980198509
21049683 271 18188219800470247588
21267235 1 18337117786648738031
21304253 13 18342739580937782409
21478907 32 18192711133776242298
21641784 216 17750816367091065092
221490 88 18189903204422801491
22182313 1 17897138382156951525
2255824 54 18268151027296842781
22950370 63 18410577245132342838
23366157 5 18189614032595541013
23402539 116 18341045220729273687
23557571 272 18267872670703947998
23558518 356 17613730219328470930
23559900 14 18338790208854726291
283562 15 18117560626672719562
3091708 16 9355908813740530360
314194 84 18408046225278924699
335352 9 18409730621848388053
3421961 26 18411134770552462968
345986 75 18042954381471053970
4409770 3 17829603959986370437
474 4 18051407663220854969
5104073 3 18342181089787876539
6443956 14 18410294709208961476
67856867 119 18200028594413130553
7164475 11 18193000327209785974
7364860 26 18267866262185500069
7471813 234 18130780196675878781
77188 2 18411135810277764748
84936 182 17984143939959262393
8863177 126 17823434854004679963
9971528 1 18411695508534170001
9981440 41 17474381856250603289

> <PUBCHEM_SHAPE_MULTIPOLES>
425.82
10.41
4.19
0.78
8.55
6.05
-0.01
-7.81
-0.69
-4.53
-0.46
0.32
0.09
-0.78

> <PUBCHEM_SHAPE_SELFOVERLAP>
896.028

> <PUBCHEM_SHAPE_VOLUME>
242.3

> <PUBCHEM_COORDINATE_TYPE>
2
5
10

$$$$
