3038489
  -OEChem-10052120433D

 63 63  0     0  0  0  0  0  0999 V2000
    2.1342   -0.2362    1.8074 O   0  0  0  0  0  0  0  0  0  0  0  0
    3.5067   -2.2498    0.4088 N   0  0  0  0  0  0  0  0  0  0  0  0
    7.1904    0.8065   -0.2544 N   0  0  0  0  0  0  0  0  0  0  0  0
    2.4806   -1.5673   -1.6630 N   0  0  0  0  0  0  0  0  0  0  0  0
    2.2020   -3.6931   -0.8811 N   0  0  0  0  0  0  0  0  0  0  0  0
    6.2671    1.5747   -2.3445 N   0  0  0  0  0  0  0  0  0  0  0  0
    8.5254    1.5621   -2.0157 N   0  0  0  0  0  0  0  0  0  0  0  0
   -5.2435   -0.1615    0.4824 C   0  0  0  0  0  0  0  0  0  0  0  0
   -6.4576    0.6238   -0.0254 C   0  0  0  0  0  0  0  0  0  0  0  0
   -3.9423    0.6437    0.4452 C   0  0  0  0  0  0  0  0  0  0  0  0
   -7.8082   -0.0950    0.0685 C   0  0  0  0  0  0  0  0  0  0  0  0
   -2.7269   -0.1462    0.9412 C   0  0  0  0  0  0  0  0  0  0  0  0
   -8.9710    0.7166   -0.5083 C   0  0  0  0  0  0  0  0  0  0  0  0
   -1.4208    0.6499    0.8816 C   0  0  0  0  0  0  0  0  0  0  0  0
  -10.3043   -0.0382   -0.4939 C   0  0  0  0  0  0  0  0  0  0  0  0
   -0.2358   -0.1948    1.3615 C   0  0  0  0  0  0  0  0  0  0  0  0
  -11.4633    0.7590   -1.0937 C   0  0  0  0  0  0  0  0  0  0  0  0
    1.0742    0.5836    1.3367 C   0  0  0  0  0  0  0  0  0  0  0  0
  -12.7749   -0.0043   -0.9860 C   0  0  0  0  0  0  0  0  0  0  0  0
    3.3812    0.0081    1.2927 C   0  0  0  0  0  0  0  0  0  0  0  0
    4.0731   -0.9833    0.5969 C   0  0  0  0  0  0  0  0  0  0  0  0
    3.9578    1.2654    1.4729 C   0  0  0  0  0  0  0  0  0  0  0  0
    5.3416   -0.7174    0.0813 C   0  0  0  0  0  0  0  0  0  0  0  0
    5.2262    1.5312    0.9573 C   0  0  0  0  0  0  0  0  0  0  0  0
    5.9182    0.5399    0.2615 C   0  0  0  0  0  0  0  0  0  0  0  0
    2.7763   -2.4637   -0.6588 C   0  0  0  0  0  0  0  0  0  0  0  0
    7.2934    1.2863   -1.4710 C   0  0  0  0  0  0  0  0  0  0  0  0
   -5.1281   -1.0703   -0.1207 H   0  0  0  0  0  0  0  0  0  0  0  0
   -5.4343   -0.4869    1.5124 H   0  0  0  0  0  0  0  0  0  0  0  0
   -6.5278    1.5646    0.5354 H   0  0  0  0  0  0  0  0  0  0  0  0
   -6.2777    0.9019   -1.0718 H   0  0  0  0  0  0  0  0  0  0  0  0
   -4.0581    1.5466    1.0571 H   0  0  0  0  0  0  0  0  0  0  0  0
   -3.7573    0.9791   -0.5828 H   0  0  0  0  0  0  0  0  0  0  0  0
   -7.7366   -1.0503   -0.4659 H   0  0  0  0  0  0  0  0  0  0  0  0
   -8.0173   -0.3345    1.1182 H   0  0  0  0  0  0  0  0  0  0  0  0
   -2.9071   -0.4705    1.9737 H   0  0  0  0  0  0  0  0  0  0  0  0
   -2.6223   -1.0561    0.3371 H   0  0  0  0  0  0  0  0  0  0  0  0
   -8.7344    0.9991   -1.5416 H   0  0  0  0  0  0  0  0  0  0  0  0
   -9.0760    1.6496    0.0589 H   0  0  0  0  0  0  0  0  0  0  0  0
   -1.5108    1.5478    1.5045 H   0  0  0  0  0  0  0  0  0  0  0  0
   -1.2403    0.9844   -0.1470 H   0  0  0  0  0  0  0  0  0  0  0  0
  -10.5466   -0.3072    0.5418 H   0  0  0  0  0  0  0  0  0  0  0  0
  -10.1913   -0.9794   -1.0463 H   0  0  0  0  0  0  0  0  0  0  0  0
   -0.1342   -1.0920    0.7380 H   0  0  0  0  0  0  0  0  0  0  0  0
   -0.4191   -0.5581    2.3805 H   0  0  0  0  0  0  0  0  0  0  0  0
  -11.5622    1.7184   -0.5730 H   0  0  0  0  0  0  0  0  0  0  0  0
  -11.2555    0.9803   -2.1468 H   0  0  0  0  0  0  0  0  0  0  0  0
    1.2707    0.9258    0.3121 H   0  0  0  0  0  0  0  0  0  0  0  0
    0.9973    1.4636    1.9857 H   0  0  0  0  0  0  0  0  0  0  0  0
  -13.0254   -0.2088    0.0599 H   0  0  0  0  0  0  0  0  0  0  0  0
  -13.5903    0.5810   -1.4224 H   0  0  0  0  0  0  0  0  0  0  0  0
  -12.7181   -0.9585   -1.5193 H   0  0  0  0  0  0  0  0  0  0  0  0
    3.4349    2.0449    2.0201 H   0  0  0  0  0  0  0  0  0  0  0  0
    5.8821   -1.4905   -0.4604 H   0  0  0  0  0  0  0  0  0  0  0  0
    5.6682    2.5132    1.1049 H   0  0  0  0  0  0  0  0  0  0  0  0
    1.8998   -1.8364   -2.4498 H   0  0  0  0  0  0  0  0  0  0  0  0
    2.8240   -0.6133   -1.6530 H   0  0  0  0  0  0  0  0  0  0  0  0
    1.6340   -3.8723   -1.7018 H   0  0  0  0  0  0  0  0  0  0  0  0
    2.3302   -4.4569   -0.2263 H   0  0  0  0  0  0  0  0  0  0  0  0
    5.2938    1.4288   -2.1005 H   0  0  0  0  0  0  0  0  0  0  0  0
    6.4565    1.9448   -3.2697 H   0  0  0  0  0  0  0  0  0  0  0  0
    9.3781    1.4014   -1.4906 H   0  0  0  0  0  0  0  0  0  0  0  0
    8.6187    1.9341   -2.9545 H   0  0  0  0  0  0  0  0  0  0  0  0
  1 18  1  0  0  0  0
  1 20  1  0  0  0  0
  2 21  1  0  0  0  0
  2 26  2  0  0  0  0
  3 25  1  0  0  0  0
  3 27  2  0  0  0  0
  4 26  1  0  0  0  0
  4 56  1  0  0  0  0
  4 57  1  0  0  0  0
  5 26  1  0  0  0  0
  5 58  1  0  0  0  0
  5 59  1  0  0  0  0
  6 27  1  0  0  0  0
  6 60  1  0  0  0  0
  6 61  1  0  0  0  0
  7 27  1  0  0  0  0
  7 62  1  0  0  0  0
  7 63  1  0  0  0  0
  8  9  1  0  0  0  0
  8 10  1  0  0  0  0
  8 28  1  0  0  0  0
  8 29  1  0  0  0  0
  9 11  1  0  0  0  0
  9 30  1  0  0  0  0
  9 31  1  0  0  0  0
 10 12  1  0  0  0  0
 10 32  1  0  0  0  0
 10 33  1  0  0  0  0
 11 13  1  0  0  0  0
 11 34  1  0  0  0  0
 11 35  1  0  0  0  0
 12 14  1  0  0  0  0
 12 36  1  0  0  0  0
 12 37  1  0  0  0  0
 13 15  1  0  0  0  0
 13 38  1  0  0  0  0
 13 39  1  0  0  0  0
 14 16  1  0  0  0  0
 14 40  1  0  0  0  0
 14 41  1  0  0  0  0
 15 17  1  0  0  0  0
 15 42  1  0  0  0  0
 15 43  1  0  0  0  0
 16 18  1  0  0  0  0
 16 44  1  0  0  0  0
 16 45  1  0  0  0  0
 17 19  1  0  0  0  0
 17 46  1  0  0  0  0
 17 47  1  0  0  0  0
 18 48  1  0  0  0  0
 18 49  1  0  0  0  0
 19 50  1  0  0  0  0
 19 51  1  0  0  0  0
 19 52  1  0  0  0  0
 20 21  2  0  0  0  0
 20 22  1  0  0  0  0
 21 23  1  0  0  0  0
 22 24  2  0  0  0  0
 22 53  1  0  0  0  0
 23 25  2  0  0  0  0
 23 54  1  0  0  0  0
 24 25  1  0  0  0  0
 24 55  1  0  0  0  0
M  END
> <PUBCHEM_COMPOUND_CID>
3038489

> <PUBCHEM_CONFORMER_RMSD>
1.4

> <PUBCHEM_CONFORMER_DIVERSEORDER>
1
32
66
54
62
38
8
28
4
24
43
68
71
48
75
36
15
63
35
33
18
5
21
69
56
76
70
34
11
41
14
59
10
22
2
49
73
37
19
27
46
29
7
74
64
12
67
61
3
31
13
47
52
50
20
45
17
72
55
58
39
42
40
26
53
51
25
57
44
9
65
16
30
60
23
6

> <PUBCHEM_MMFF94_PARTIAL_CHARGES>
27
1 -0.36
18 0.28
2 -0.63
20 0.08
21 0.18
22 -0.15
23 -0.15
24 -0.15
25 0.18
26 0.55
27 0.55
3 -0.63
4 -0.85
5 -0.85
53 0.15
54 0.15
55 0.15
56 0.4
57 0.4
58 0.4
59 0.4
6 -0.85
60 0.4
61 0.4
62 0.4
63 0.4
7 -0.85

> <PUBCHEM_EFFECTIVE_ROTOR_COUNT>
14

> <PUBCHEM_PHARMACOPHORE_FEATURES>
9
1 1 acceptor
1 19 hydrophobe
1 4 donor
1 5 donor
1 6 donor
1 7 donor
4 2 4 5 26 cation
4 3 6 7 27 cation
6 20 21 22 23 24 25 rings

> <PUBCHEM_HEAVY_ATOM_COUNT>
27

> <PUBCHEM_ATOM_DEF_STEREO_COUNT>
0

> <PUBCHEM_ATOM_UDEF_STEREO_COUNT>
0

> <PUBCHEM_BOND_DEF_STEREO_COUNT>
0

> <PUBCHEM_BOND_UDEF_STEREO_COUNT>
0

> <PUBCHEM_ISOTOPIC_ATOM_COUNT>
0

> <PUBCHEM_COMPONENT_COUNT>
1

> <PUBCHEM_CACTVS_TAUTO_COUNT>
4

> <PUBCHEM_CONFORMER_ID>
002E5D1900000001

> <PUBCHEM_MMFF94_ENERGY>
62.932

> <PUBCHEM_FEATURE_SELFOVERLAP>
45.782

> <PUBCHEM_SHAPE_FINGERPRINT>
10693767 8 17202220521423748694
11607047 74 15123215707405369368
11638347 137 12679460894252441657
13668630 136 16128657448696852265
14118638 360 18201722804382024393
14202775 3 15338834314394972365
14251764 46 10592043583800229809
14344974 52 17022624204904462713
14428016 248 17676486134786540037
15183329 4 17918273135058278339
155225 1 16805040735279746861
1818759 1 16271924935737096965
20721686 124 17967814934283702642
20721686 146 16733562632168858470
20771845 171 18336835208762159814
20812841 46 14779541293117889720
21057603 199 15698004032975021108
21057603 238 18045537229735140902
21344244 181 16128388073465882846
21360442 67 18341889697742838835
21360443 126 18408041836054729771
21362267 2 16443617004845728589
21792934 111 12396297059133869831
232437 2 14333127495225131777
3178227 256 8502654800905436000
57359948 33 17968098586212018383
57828716 8 17060066901342247638
59520647 119 18201148958624886311
59520757 100 18338234993579249074
60111433 81 15503526882988757310
67123 10 17095519596695838969

> <PUBCHEM_SHAPE_MULTIPOLES>
519.89
39.21
2.04
1.72
135.02
2.25
-0.65
-12.16
-23.15
-4.71
-0.63
-3.42
-0.57
-0.88

> <PUBCHEM_SHAPE_SELFOVERLAP>
1023.745

> <PUBCHEM_SHAPE_VOLUME>
308.5

> <PUBCHEM_COORDINATE_TYPE>
2
5
10

$$$$
