49830923
  -OEChem-10052120443D

 26 28  0     0  0  0  0  0  0999 V2000
    1.8440    0.3243    0.0031 N   0  0  0  0  0  0  0  0  0  0  0  0
    3.6853   -0.8853   -0.0063 N   0  0  0  0  0  0  0  0  0  0  0  0
    4.0353    0.4502   -0.0023 N   0  0  0  0  0  0  0  0  0  0  0  0
    2.7724    2.5005    0.0085 N   0  0  0  0  0  0  0  0  0  0  0  0
   -0.4051   -0.4114    0.0066 C   0  0  0  0  0  0  0  0  0  0  0  0
    0.4833    0.6065    0.0072 C   0  0  0  0  0  0  0  0  0  0  0  0
    2.3712   -0.9553   -0.0037 C   0  0  0  0  0  0  0  0  0  0  0  0
   -1.8499   -0.1115    0.0027 C   0  0  0  0  0  0  0  0  0  0  0  0
    0.1288   -1.7809   -0.0024 C   0  0  0  0  0  0  0  0  0  0  0  0
    1.4515   -2.0370   -0.0065 C   0  0  0  0  0  0  0  0  0  0  0  0
    2.9269    1.1566    0.0029 C   0  0  0  0  0  0  0  0  0  0  0  0
   -2.5273    0.0402   -1.2072 C   0  0  0  0  0  0  0  0  0  0  0  0
   -2.5381    0.0202    1.2086 C   0  0  0  0  0  0  0  0  0  0  0  0
   -3.8932    0.3237   -1.2110 C   0  0  0  0  0  0  0  0  0  0  0  0
   -3.9038    0.3036    1.2049 C   0  0  0  0  0  0  0  0  0  0  0  0
   -4.5814    0.4554   -0.0050 C   0  0  0  0  0  0  0  0  0  0  0  0
    0.1777    1.6465    0.0101 H   0  0  0  0  0  0  0  0  0  0  0  0
   -0.5828   -2.6010   -0.0053 H   0  0  0  0  0  0  0  0  0  0  0  0
    1.8226   -3.0556   -0.0128 H   0  0  0  0  0  0  0  0  0  0  0  0
   -2.0051   -0.0599   -2.1556 H   0  0  0  0  0  0  0  0  0  0  0  0
   -2.0242   -0.0955    2.1599 H   0  0  0  0  0  0  0  0  0  0  0  0
   -4.4208    0.4418   -2.1529 H   0  0  0  0  0  0  0  0  0  0  0  0
   -4.4399    0.4062    2.1439 H   0  0  0  0  0  0  0  0  0  0  0  0
   -5.6448    0.6761   -0.0079 H   0  0  0  0  0  0  0  0  0  0  0  0
    3.5764    3.1202    0.0088 H   0  0  0  0  0  0  0  0  0  0  0  0
    1.8692    2.9623    0.0128 H   0  0  0  0  0  0  0  0  0  0  0  0
  1  6  1  0  0  0  0
  1  7  1  0  0  0  0
  1 11  1  0  0  0  0
  2  3  1  0  0  0  0
  2  7  2  0  0  0  0
  3 11  2  0  0  0  0
  4 11  1  0  0  0  0
  4 25  1  0  0  0  0
  4 26  1  0  0  0  0
  5  6  2  0  0  0  0
  5  8  1  0  0  0  0
  5  9  1  0  0  0  0
  6 17  1  0  0  0  0
  7 10  1  0  0  0  0
  8 12  2  0  0  0  0
  8 13  1  0  0  0  0
  9 10  2  0  0  0  0
  9 18  1  0  0  0  0
 10 19  1  0  0  0  0
 12 14  1  0  0  0  0
 12 20  1  0  0  0  0
 13 15  2  0  0  0  0
 13 21  1  0  0  0  0
 14 16  2  0  0  0  0
 14 22  1  0  0  0  0
 15 16  1  0  0  0  0
 15 23  1  0  0  0  0
 16 24  1  0  0  0  0
M  END
> <PUBCHEM_COMPOUND_CID>
49830923

> <PUBCHEM_CONFORMER_RMSD>
0.6

> <PUBCHEM_CONFORMER_DIVERSEORDER>
1
2

> <PUBCHEM_MMFF94_PARTIAL_CHARGES>
26
1 0.33
10 -0.11
11 0.27
12 -0.15
13 -0.15
14 -0.15
15 -0.15
16 -0.15
17 0.15
18 0.15
19 0.15
2 -0.34
20 0.15
21 0.15
22 0.15
23 0.15
24 0.15
25 0.4
26 0.4
3 -0.34
4 -0.88
5 -0.03
6 -0.18
7 0.14
8 0.03
9 -0.15

> <PUBCHEM_EFFECTIVE_ROTOR_COUNT>
1

> <PUBCHEM_PHARMACOPHORE_FEATURES>
5
1 4 donor
4 1 3 4 11 cation
5 1 2 3 7 11 rings
6 1 5 6 7 9 10 rings
6 8 12 13 14 15 16 rings

> <PUBCHEM_HEAVY_ATOM_COUNT>
16

> <PUBCHEM_ATOM_DEF_STEREO_COUNT>
0

> <PUBCHEM_ATOM_UDEF_STEREO_COUNT>
0

> <PUBCHEM_BOND_DEF_STEREO_COUNT>
0

> <PUBCHEM_BOND_UDEF_STEREO_COUNT>
0

> <PUBCHEM_ISOTOPIC_ATOM_COUNT>
0

> <PUBCHEM_COMPONENT_COUNT>
1

> <PUBCHEM_CACTVS_TAUTO_COUNT>
2

> <PUBCHEM_CONFORMER_ID>
02F85C0B00000001

> <PUBCHEM_MMFF94_ENERGY>
42.9231

> <PUBCHEM_FEATURE_SELFOVERLAP>
25.484

> <PUBCHEM_SHAPE_FINGERPRINT>
10608611 8 18187359892314557173
11471102 20 18410573968277608574
11543360 7 15697717116132417512
11578080 2 17271125819091888585
11615757 297 18342458132062613011
12236239 1 17703789198224791371
13140716 1 18337669836433734634
13581323 91 14996284712769950267
13583140 156 16516505828734938572
13705890 14 13039189216854137578
14251717 144 18341327820886942214
14289901 80 16443351982991396139
15219456 202 18040435460630126503
15309172 13 18409169913425088435
15342168 16 18263371454609541829
15375358 24 17822006489372532191
15653759 3 17095244717765417321
15775835 57 18273495684610359317
16945 1 18410856521206987266
17834072 33 18343297085668731191
1813 80 17627523626985274518
18175812 5 17894351089899015639
18186145 218 18342179981248177740
19049666 15 17532928290823948695
19422 9 17775283854962312495
200 152 18272363166623143631
20279233 1 17748830692009376955
204376 136 18336830887180664302
20645477 70 18337102354926195775
21065201 7 16081369614139288259
21499 59 18341048605142085591
21639500 275 18340759420683325749
2255824 54 18342741762986916494
22854114 111 18410575080373392872
22854114 59 18333453149037338035
231179 274 18187078447223100422
23402539 116 16773793671432665472
23402655 69 18272366438982216765
23557571 272 17022905619155447983
23559900 14 16588301618841544658
25 1 18410575102138464142
2748010 2 18194128632061249078
3060560 45 18342457011203204550
474 4 18341612658881126424
57096353 35 17703500069574252549
602551 16 16226343597815633683
633830 44 18130239206388861357
77492 1 17703788090002020131
8272917 22 18199191694102203495
9971528 1 18060136506077119558
9981440 41 16837942710476708392

> <PUBCHEM_SHAPE_MULTIPOLES>
309.35
8.23
1.66
0.98
2.63
0.07
0
2.21
0
-2
0
1.24
0.05
0.02

> <PUBCHEM_SHAPE_SELFOVERLAP>
688.474

> <PUBCHEM_SHAPE_VOLUME>
162.7

> <PUBCHEM_COORDINATE_TYPE>
2
5
10

$$$$
