49830701
  -OEChem-10052115193D

 35 37  0     0  0  0  0  0  0999 V2000
   -7.2358    0.9917   -0.0007 Cl  0  0  0  0  0  0  0  0  0  0  0  0
    6.7150    1.0348   -0.0024 F   0  0  0  0  0  0  0  0  0  0  0  0
    5.0820    1.9773   -1.0853 F   0  0  0  0  0  0  0  0  0  0  0  0
    5.0843    1.9779    1.0835 F   0  0  0  0  0  0  0  0  0  0  0  0
    0.7187    1.0815    0.0011 O   0  0  0  0  0  0  0  0  0  0  0  0
   -0.9941   -0.5157    0.0010 N   0  0  0  0  0  0  0  0  0  0  0  0
   -4.4070    1.9007    0.0004 N   0  0  0  0  0  0  0  0  0  0  0  0
    1.2056   -1.2059    0.0009 N   0  0  0  0  0  0  0  0  0  0  0  0
    3.2784   -0.0405    0.0009 N   0  0  0  0  0  0  0  0  0  0  0  0
   -3.4344   -0.3042    0.0002 C   0  0  0  0  0  0  0  0  0  0  0  0
   -2.1547    0.2669    0.0010 C   0  0  0  0  0  0  0  0  0  0  0  0
   -4.5481    0.5618   -0.0001 C   0  0  0  0  0  0  0  0  0  0  0  0
   -3.6188   -1.6972   -0.0003 C   0  0  0  0  0  0  0  0  0  0  0  0
   -2.0061    1.6463    0.0011 C   0  0  0  0  0  0  0  0  0  0  0  0
   -5.8192   -0.0060   -0.0009 C   0  0  0  0  0  0  0  0  0  0  0  0
   -4.9015   -2.2379   -0.0012 C   0  0  0  0  0  0  0  0  0  0  0  0
   -6.0028   -1.3909   -0.0015 C   0  0  0  0  0  0  0  0  0  0  0  0
   -3.1545    2.4120    0.0006 C   0  0  0  0  0  0  0  0  0  0  0  0
    0.3536   -0.0897    0.0010 C   0  0  0  0  0  0  0  0  0  0  0  0
    2.6204   -1.2215    0.0009 C   0  0  0  0  0  0  0  0  0  0  0  0
    4.6287   -0.1055    0.0004 C   0  0  0  0  0  0  0  0  0  0  0  0
    3.2458   -2.4579    0.0003 C   0  0  0  0  0  0  0  0  0  0  0  0
    5.3481   -1.2896    0.0001 C   0  0  0  0  0  0  0  0  0  0  0  0
    4.6360   -2.4839   -0.0001 C   0  0  0  0  0  0  0  0  0  0  0  0
    5.3600    1.1954   -0.0010 C   0  0  0  0  0  0  0  0  0  0  0  0
   -2.7964   -2.4048    0.0000 H   0  0  0  0  0  0  0  0  0  0  0  0
   -1.1135   -1.5215    0.0009 H   0  0  0  0  0  0  0  0  0  0  0  0
   -1.0782    2.1933    0.0015 H   0  0  0  0  0  0  0  0  0  0  0  0
   -5.0407   -3.3147   -0.0017 H   0  0  0  0  0  0  0  0  0  0  0  0
   -7.0009   -1.8217   -0.0021 H   0  0  0  0  0  0  0  0  0  0  0  0
   -3.1020    3.4959    0.0007 H   0  0  0  0  0  0  0  0  0  0  0  0
    0.7584   -2.1192    0.0008 H   0  0  0  0  0  0  0  0  0  0  0  0
    2.6853   -3.3871    0.0002 H   0  0  0  0  0  0  0  0  0  0  0  0
    6.4324   -1.3092   -0.0005 H   0  0  0  0  0  0  0  0  0  0  0  0
    5.1634   -3.4331   -0.0006 H   0  0  0  0  0  0  0  0  0  0  0  0
  1 15  1  0  0  0  0
  2 25  1  0  0  0  0
  3 25  1  0  0  0  0
  4 25  1  0  0  0  0
  5 19  2  0  0  0  0
  6 11  1  0  0  0  0
  6 19  1  0  0  0  0
  6 27  1  0  0  0  0
  7 12  2  0  0  0  0
  7 18  1  0  0  0  0
  8 19  1  0  0  0  0
  8 20  1  0  0  0  0
  8 32  1  0  0  0  0
  9 20  1  0  0  0  0
  9 21  2  0  0  0  0
 10 11  2  0  0  0  0
 10 12  1  0  0  0  0
 10 13  1  0  0  0  0
 11 14  1  0  0  0  0
 12 15  1  0  0  0  0
 13 16  2  0  0  0  0
 13 26  1  0  0  0  0
 14 18  2  0  0  0  0
 14 28  1  0  0  0  0
 15 17  2  0  0  0  0
 16 17  1  0  0  0  0
 16 29  1  0  0  0  0
 17 30  1  0  0  0  0
 18 31  1  0  0  0  0
 20 22  2  0  0  0  0
 21 23  1  0  0  0  0
 21 25  1  0  0  0  0
 22 24  1  0  0  0  0
 22 33  1  0  0  0  0
 23 24  2  0  0  0  0
 23 34  1  0  0  0  0
 24 35  1  0  0  0  0
M  END
> <PUBCHEM_COMPOUND_CID>
49830701

> <PUBCHEM_CONFORMER_RMSD>
0.8

> <PUBCHEM_CONFORMER_DIVERSEORDER>
1
21
15
5
18
16
13
11
24
4
8
9
7
10
6
17
3
12
23
2
14
22
19
20

> <PUBCHEM_MMFF94_PARTIAL_CHARGES>
34
1 -0.18
11 0.12
12 0.31
13 -0.15
14 -0.15
15 0.18
16 -0.15
17 -0.15
18 0.16
19 0.69
2 -0.34
20 0.43
21 0.17
22 -0.15
23 -0.15
24 -0.15
25 1.16
26 0.15
27 0.37
28 0.15
29 0.15
3 -0.34
30 0.15
31 0.15
32 0.37
33 0.15
34 0.15
35 0.15
4 -0.34
5 -0.57
6 -0.55
7 -0.62
8 -0.55
9 -0.62

> <PUBCHEM_EFFECTIVE_ROTOR_COUNT>
5

> <PUBCHEM_PHARMACOPHORE_FEATURES>
8
1 5 acceptor
1 6 donor
1 7 acceptor
1 8 donor
1 9 acceptor
6 10 12 13 15 16 17 rings
6 7 10 11 12 14 18 rings
6 9 20 21 22 23 24 rings

> <PUBCHEM_HEAVY_ATOM_COUNT>
25

> <PUBCHEM_ATOM_DEF_STEREO_COUNT>
0

> <PUBCHEM_ATOM_UDEF_STEREO_COUNT>
0

> <PUBCHEM_BOND_DEF_STEREO_COUNT>
0

> <PUBCHEM_BOND_UDEF_STEREO_COUNT>
0

> <PUBCHEM_ISOTOPIC_ATOM_COUNT>
0

> <PUBCHEM_COMPONENT_COUNT>
1

> <PUBCHEM_CACTVS_TAUTO_COUNT>
11

> <PUBCHEM_CONFORMER_ID>
02F85B2D00000001

> <PUBCHEM_MMFF94_ENERGY>
70.9375

> <PUBCHEM_FEATURE_SELFOVERLAP>
40.681

> <PUBCHEM_SHAPE_FINGERPRINT>
10595046 47 18410012126178011674
10835480 77 18409722942141323229
10968037 39 18410011048942839831
11315181 36 18060702797631109595
11524674 6 16559028290637261231
12107183 9 17617094711597101354
12236239 1 18260548918277392607
12516196 113 18273494585220252249
12616971 3 17917699181082289270
13073987 5 18410856533875267209
13167823 11 18410290268313172902
13533116 47 18410855430491009586
14251732 16 18411136965180206027
14341114 176 18410578366318786463
14461889 52 18337105769815398370
14528608 73 18410578388099669150
14904525 67 15913609466772517387
14933364 13 18412546504753656776
15183329 4 18411702058385754755
15196674 1 18410573955107824546
15927050 60 17479452787041135564
15961568 22 18187087269498007396
16110190 28 18342179960269408207
17834072 33 18410575071941902230
17844677 252 18339649931999287498
17857418 61 18410293614377065463
18335252 98 18409172138371219811
20511986 3 18187071850396329775
21236236 1 18341050727573192075
21267235 1 18339086990509616015
21315763 129 18336544907247275916
23522609 53 18058193711680670689
23559900 14 18340197588149635729
239999 70 18271811164626613670
245318 6 17098920535978744772
3004659 81 18335984173476315690
3246875 12 18268706302592190256
329604 57 18201720639280650704
335352 9 18411134715899322429
34797466 226 17846223254259393684
350125 39 18412544327622345889
4073 2 18114468932613328978
4214541 1 18338797806330002307
4325135 7 18409449193620523220
497634 4 18410857616645324045
5104073 3 18411136892234432042
513532 50 18342189847695269438
5312625 73 18342174501043935954
67856867 119 18261678198191979629
7495541 125 17917704704151684522

> <PUBCHEM_SHAPE_MULTIPOLES>
468.74
18.98
2.65
0.65
2.93
0.18
0
-1.43
0.01
0.89
0
0.26
-0.12
0

> <PUBCHEM_SHAPE_SELFOVERLAP>
1022.237

> <PUBCHEM_SHAPE_VOLUME>
256.5

> <PUBCHEM_COORDINATE_TYPE>
2
5
10

$$$$
