64961
  -OEChem-10062121573D

 21 23  0     0  0  0  0  0  0999 V2000
    0.0175   -1.6273    0.0001 N   0  0  0  0  0  0  0  0  0  0  0  0
    3.4207   -0.2049   -0.0004 N   0  0  0  0  0  0  0  0  0  0  0  0
   -0.7139    0.4801    0.0001 C   0  0  0  0  0  0  0  0  0  0  0  0
    0.7169    0.4908    0.0003 C   0  0  0  0  0  0  0  0  0  0  0  0
   -1.1205   -0.8549    0.0002 C   0  0  0  0  0  0  0  0  0  0  0  0
    1.1413   -0.8375    0.0000 C   0  0  0  0  0  0  0  0  0  0  0  0
   -1.7027    1.4862   -0.0004 C   0  0  0  0  0  0  0  0  0  0  0  0
   -2.4672   -1.2359    0.0003 C   0  0  0  0  0  0  0  0  0  0  0  0
    1.6895    1.5029    0.0005 C   0  0  0  0  0  0  0  0  0  0  0  0
    2.4864   -1.1835   -0.0005 C   0  0  0  0  0  0  0  0  0  0  0  0
   -3.0535    1.1206   -0.0005 C   0  0  0  0  0  0  0  0  0  0  0  0
   -3.4278   -0.2209    0.0001 C   0  0  0  0  0  0  0  0  0  0  0  0
    3.0134    1.0843    0.0003 C   0  0  0  0  0  0  0  0  0  0  0  0
    0.0250   -2.6379    0.0001 H   0  0  0  0  0  0  0  0  0  0  0  0
   -1.4267    2.5369   -0.0007 H   0  0  0  0  0  0  0  0  0  0  0  0
   -2.7596   -2.2807    0.0005 H   0  0  0  0  0  0  0  0  0  0  0  0
    1.4306    2.5554    0.0008 H   0  0  0  0  0  0  0  0  0  0  0  0
    2.8397   -2.2063   -0.0008 H   0  0  0  0  0  0  0  0  0  0  0  0
   -3.8177    1.8932   -0.0009 H   0  0  0  0  0  0  0  0  0  0  0  0
   -4.4826   -0.4838    0.0002 H   0  0  0  0  0  0  0  0  0  0  0  0
    3.8168    1.8149    0.0004 H   0  0  0  0  0  0  0  0  0  0  0  0
  1  5  1  0  0  0  0
  1  6  1  0  0  0  0
  1 14  1  0  0  0  0
  2 10  2  0  0  0  0
  2 13  1  0  0  0  0
  3  4  1  0  0  0  0
  3  5  1  0  0  0  0
  3  7  2  0  0  0  0
  4  6  2  0  0  0  0
  4  9  1  0  0  0  0
  5  8  2  0  0  0  0
  6 10  1  0  0  0  0
  7 11  1  0  0  0  0
  7 15  1  0  0  0  0
  8 12  1  0  0  0  0
  8 16  1  0  0  0  0
  9 13  2  0  0  0  0
  9 17  1  0  0  0  0
 10 18  1  0  0  0  0
 11 12  2  0  0  0  0
 11 19  1  0  0  0  0
 12 20  1  0  0  0  0
 13 21  1  0  0  0  0
M  END
> <PUBCHEM_COMPOUND_CID>
64961

> <PUBCHEM_CONFORMER_RMSD>
0.4

> <PUBCHEM_CONFORMER_DIVERSEORDER>
1

> <PUBCHEM_MMFF94_PARTIAL_CHARGES>
19
1 0.03
10 0.16
11 -0.15
12 -0.15
13 0.16
14 0.27
15 0.15
16 0.15
17 0.15
18 0.15
19 0.15
2 -0.62
20 0.15
21 0.15
5 -0.15
6 -0.15
7 -0.15
8 -0.15
9 -0.15

> <PUBCHEM_EFFECTIVE_ROTOR_COUNT>
0

> <PUBCHEM_PHARMACOPHORE_FEATURES>
6
1 1 cation
1 1 donor
1 2 acceptor
5 1 3 4 5 6 rings
6 2 4 6 9 10 13 rings
6 3 5 7 8 11 12 rings

> <PUBCHEM_HEAVY_ATOM_COUNT>
13

> <PUBCHEM_ATOM_DEF_STEREO_COUNT>
0

> <PUBCHEM_ATOM_UDEF_STEREO_COUNT>
0

> <PUBCHEM_BOND_DEF_STEREO_COUNT>
0

> <PUBCHEM_BOND_UDEF_STEREO_COUNT>
0

> <PUBCHEM_ISOTOPIC_ATOM_COUNT>
0

> <PUBCHEM_COMPONENT_COUNT>
1

> <PUBCHEM_CACTVS_TAUTO_COUNT>
2

> <PUBCHEM_CONFORMER_ID>
0000FDC100000001

> <PUBCHEM_MMFF94_ENERGY>
28.3536

> <PUBCHEM_FEATURE_SELFOVERLAP>
30.632

> <PUBCHEM_SHAPE_FINGERPRINT>
10608611 8 18410852165925643233
10967382 1 18410575076115407303
11132069 177 18411975866777244176
11471102 20 18410851040875904693
12032990 46 18410863156725607855
12491281 212 18339936930172299745
13380535 76 18410854364932970595
14144814 61 18410292501616500040
14325111 11 18410573989462457057
15219456 202 18412265034061350901
15442244 35 18194964037280276842
15536298 74 18343301466287323044
15775835 57 18410862061530052865
16945 1 18339361838340901611
17844478 74 18187374237584304081
18186145 218 18342462504033579620
193761 8 13655054876590374251
19973954 147 18410577288023694661
200 152 18131338722844257277
20201158 50 18412544288577074687
20871998 184 18201443648508565143
21267235 1 18410583885067256451
21501502 16 18410855468728652399
2334 1 18410574019527033253
23402539 116 18271232889495793181
23402655 69 18269823247676941117
23463225 33 18335700512049592666
23552423 10 18333732450386121943
23559900 14 18271246024518841886
2748010 2 18410575093274145165
369184 2 18413107277364380825
5104073 3 18410855460128169289
528886 8 18410849958290880032
53812653 166 18342734139546176976
57096353 35 18338797947752661381
63268167 104 18411421674267427264
6333449 129 18411416220012239597
69090 78 18343297076730701847
7364860 26 18270117899133410398
8809292 202 18260835916191928907

> <PUBCHEM_SHAPE_MULTIPOLES>
257.57
5.44
1.71
0.6
0.05
0.04
0
0.48
0
0
0
-0.02
0.01
0

> <PUBCHEM_SHAPE_SELFOVERLAP>
586.551

> <PUBCHEM_SHAPE_VOLUME>
135.5

> <PUBCHEM_COORDINATE_TYPE>
2
5
10

$$$$
