46224684
  -OEChem-10062122033D

 50 55  0     0  0  0  0  0  0999 V2000
    3.0900    1.2959    0.6858 S   0  0  0  0  0  0  0  0  0  0  0  0
   -4.1519   -0.0758   -1.1085 N   0  0  0  0  0  0  0  0  0  0  0  0
    2.5884   -2.9865    0.9749 N   0  0  0  0  0  0  0  0  0  0  0  0
   -2.2253    1.6830    1.2589 N   0  0  0  0  0  0  0  0  0  0  0  0
    2.1947   -4.1850    1.4370 N   0  0  0  0  0  0  0  0  0  0  0  0
   -4.2879    2.9465    0.9880 N   0  0  0  0  0  0  0  0  0  0  0  0
   -7.6462   -1.0565   -1.9832 N   0  0  0  0  0  0  0  0  0  0  0  0
   -2.6092    3.6544    2.4572 N   0  0  0  0  0  0  0  0  0  0  0  0
   -2.1497   -0.3739   -0.1785 C   0  0  0  0  0  0  0  0  0  0  0  0
   -0.8819   -0.9920    0.0977 C   0  0  0  0  0  0  0  0  0  0  0  0
   -3.9684    0.9758   -0.2476 C   0  0  0  0  0  0  0  0  0  0  0  0
   -2.7209    0.8106    0.3469 C   0  0  0  0  0  0  0  0  0  0  0  0
   -3.0555   -0.9002   -1.0737 C   0  0  0  0  0  0  0  0  0  0  0  0
    1.5489   -0.8570    0.1081 C   0  0  0  0  0  0  0  0  0  0  0  0
   -5.3175   -0.2950   -1.9363 C   0  0  0  0  0  0  0  0  0  0  0  0
    1.5596   -2.1560    0.6206 C   0  0  0  0  0  0  0  0  0  0  0  0
    0.2977   -0.2873   -0.1492 C   0  0  0  0  0  0  0  0  0  0  0  0
    0.4004   -2.8801    0.8757 C   0  0  0  0  0  0  0  0  0  0  0  0
   -0.8489   -2.2942    0.6121 C   0  0  0  0  0  0  0  0  0  0  0  0
    2.7864   -0.1685   -0.1320 C   0  0  0  0  0  0  0  0  0  0  0  0
   -6.4843   -0.8567   -1.1248 C   0  0  0  0  0  0  0  0  0  0  0  0
   -4.7594    2.0622    0.0823 C   0  0  0  0  0  0  0  0  0  0  0  0
    0.8630   -4.1165    1.3752 C   0  0  0  0  0  0  0  0  0  0  0  0
    3.8241   -0.5204   -0.9620 C   0  0  0  0  0  0  0  0  0  0  0  0
    4.9041    0.4246   -0.9377 C   0  0  0  0  0  0  0  0  0  0  0  0
    4.6306    1.4831   -0.0658 C   0  0  0  0  0  0  0  0  0  0  0  0
   -3.0661    2.7060    1.5140 C   0  0  0  0  0  0  0  0  0  0  0  0
    6.1368    0.4326   -1.6344 C   0  0  0  0  0  0  0  0  0  0  0  0
    5.5469    2.5362    0.1244 C   0  0  0  0  0  0  0  0  0  0  0  0
    7.0477    1.4757   -1.4480 C   0  0  0  0  0  0  0  0  0  0  0  0
    6.7539    2.5154   -0.5774 C   0  0  0  0  0  0  0  0  0  0  0  0
   -3.0137   -1.7895   -1.6900 H   0  0  0  0  0  0  0  0  0  0  0  0
   -5.0352   -0.9826   -2.7428 H   0  0  0  0  0  0  0  0  0  0  0  0
   -5.5784    0.6631   -2.4015 H   0  0  0  0  0  0  0  0  0  0  0  0
    0.2443    0.7205   -0.5605 H   0  0  0  0  0  0  0  0  0  0  0  0
   -1.7617   -2.8491    0.8122 H   0  0  0  0  0  0  0  0  0  0  0  0
   -6.2019   -1.8110   -0.6654 H   0  0  0  0  0  0  0  0  0  0  0  0
   -6.7586   -0.1759   -0.3122 H   0  0  0  0  0  0  0  0  0  0  0  0
   -5.7361    2.2546   -0.3398 H   0  0  0  0  0  0  0  0  0  0  0  0
    3.5821   -2.7986    0.9290 H   0  0  0  0  0  0  0  0  0  0  0  0
    0.2830   -4.9701    1.6966 H   0  0  0  0  0  0  0  0  0  0  0  0
    3.8238   -1.4164   -1.5720 H   0  0  0  0  0  0  0  0  0  0  0  0
    6.3813   -0.3751   -2.3199 H   0  0  0  0  0  0  0  0  0  0  0  0
    5.3253    3.3542    0.8040 H   0  0  0  0  0  0  0  0  0  0  0  0
   -7.4159   -1.7177   -2.7239 H   0  0  0  0  0  0  0  0  0  0  0  0
   -8.3966   -1.4839   -1.4419 H   0  0  0  0  0  0  0  0  0  0  0  0
    7.9901    1.4705   -1.9885 H   0  0  0  0  0  0  0  0  0  0  0  0
    7.4685    3.3222   -0.4388 H   0  0  0  0  0  0  0  0  0  0  0  0
   -1.7026    3.5307    2.8863 H   0  0  0  0  0  0  0  0  0  0  0  0
   -3.1945    4.4445    2.6904 H   0  0  0  0  0  0  0  0  0  0  0  0
  1 20  1  0  0  0  0
  1 26  1  0  0  0  0
  2 11  1  0  0  0  0
  2 13  1  0  0  0  0
  2 15  1  0  0  0  0
  3  5  1  0  0  0  0
  3 16  1  0  0  0  0
  3 40  1  0  0  0  0
  4 12  2  0  0  0  0
  4 27  1  0  0  0  0
  5 23  2  0  0  0  0
  6 22  1  0  0  0  0
  6 27  2  0  0  0  0
  7 21  1  0  0  0  0
  7 45  1  0  0  0  0
  7 46  1  0  0  0  0
  8 27  1  0  0  0  0
  8 49  1  0  0  0  0
  8 50  1  0  0  0  0
  9 10  1  0  0  0  0
  9 12  1  0  0  0  0
  9 13  2  0  0  0  0
 10 17  1  0  0  0  0
 10 19  2  0  0  0  0
 11 12  1  0  0  0  0
 11 22  2  0  0  0  0
 13 32  1  0  0  0  0
 14 16  1  0  0  0  0
 14 17  2  0  0  0  0
 14 20  1  0  0  0  0
 15 21  1  0  0  0  0
 15 33  1  0  0  0  0
 15 34  1  0  0  0  0
 16 18  2  0  0  0  0
 17 35  1  0  0  0  0
 18 19  1  0  0  0  0
 18 23  1  0  0  0  0
 19 36  1  0  0  0  0
 20 24  2  0  0  0  0
 21 37  1  0  0  0  0
 21 38  1  0  0  0  0
 22 39  1  0  0  0  0
 23 41  1  0  0  0  0
 24 25  1  0  0  0  0
 24 42  1  0  0  0  0
 25 26  1  0  0  0  0
 25 28  2  0  0  0  0
 26 29  2  0  0  0  0
 28 30  1  0  0  0  0
 28 43  1  0  0  0  0
 29 31  1  0  0  0  0
 29 44  1  0  0  0  0
 30 31  2  0  0  0  0
 30 47  1  0  0  0  0
 31 48  1  0  0  0  0
M  END
> <PUBCHEM_COMPOUND_CID>
46224684

> <PUBCHEM_CONFORMER_RMSD>
0.8

> <PUBCHEM_CONFORMER_DIVERSEORDER>
1
36
2
28
45
30
3
17
42
34
5
12
35
20
41
16
4
44
29
24
46
43
10
11
15
23
21
31
13
22
27
37
9
40
7
8
6
38
33
25
32
14
39
18
19
26

> <PUBCHEM_MMFF94_PARTIAL_CHARGES>
44
1 -0.08
10 0.05
11 -0.15
12 0.26
13 -0.3
14 0.05
15 0.26
16 -0.15
17 -0.15
19 -0.15
2 0.05
20 -0.01
21 0.27
22 0.16
23 0.14
24 -0.15
26 0.04
27 0.72
28 -0.15
29 -0.15
3 0.3
30 -0.15
31 -0.15
32 0.15
35 0.15
36 0.15
39 0.15
4 -0.57
40 0.27
41 0.15
42 0.15
43 0.15
44 0.15
45 0.36
46 0.36
47 0.15
48 0.15
49 0.4
5 -0.71
50 0.4
6 -0.62
7 -0.99
8 -0.9
9 -0.05

> <PUBCHEM_EFFECTIVE_ROTOR_COUNT>
4

> <PUBCHEM_PHARMACOPHORE_FEATURES>
14
1 2 cation
1 3 donor
1 4 acceptor
1 5 acceptor
1 7 cation
1 7 donor
1 8 donor
4 4 6 8 27 cation
5 1 20 24 25 26 rings
5 2 9 11 12 13 rings
5 3 5 16 18 23 rings
6 10 14 16 17 18 19 rings
6 25 26 28 29 30 31 rings
6 4 6 11 12 22 27 rings

> <PUBCHEM_HEAVY_ATOM_COUNT>
31

> <PUBCHEM_ATOM_DEF_STEREO_COUNT>
0

> <PUBCHEM_ATOM_UDEF_STEREO_COUNT>
0

> <PUBCHEM_BOND_DEF_STEREO_COUNT>
0

> <PUBCHEM_BOND_UDEF_STEREO_COUNT>
0

> <PUBCHEM_ISOTOPIC_ATOM_COUNT>
0

> <PUBCHEM_COMPONENT_COUNT>
1

> <PUBCHEM_CACTVS_TAUTO_COUNT>
6

> <PUBCHEM_CONFORMER_ID>
02C1552C00000001

> <PUBCHEM_MMFF94_ENERGY>
69.0822

> <PUBCHEM_FEATURE_SELFOVERLAP>
71.315

> <PUBCHEM_SHAPE_FINGERPRINT>
10670039 82 18342177760945881524
11049842 53 16985188929680023991
11062273 23 17753902910868671546
11135609 187 18260540130937848525
12107698 1 17846217795097991284
12390115 104 18262253200065946786
12788726 201 18130498661896725655
13540713 5 18197213646913900891
13590594 115 17470168059926476586
13726171 33 17703518705516932849
13782708 43 14548725240524578621
14739800 52 18058709335383403408
14767858 380 18340760533617666159
14790565 3 18335428928868212184
14840074 17 17530973505337472492
14931854 50 18343014506342476925
15064981 194 18120671363609844381
15183329 4 18202291295059626036
15351339 4 18413384333110336824
16991971 28 17559660928359379359
18608769 82 18266468774622682643
19302320 297 16754670686204903937
20554085 129 18266440161914216002
20642791 35 17916288598116498497
21033648 144 18040998414609672031
21033648 29 18191302883136170240
21049683 271 18339070619223048621
21792964 463 18116450158784695837
21796203 349 17325517418167410050
22122407 14 17760386395982835057
221357 26 17775286105525474216
23569917 315 18334010592917864586
24771293 8 18124585394100684874
249057 25 18268137682696421274
25147074 1 18268142059405401603
283562 15 18117563044149282283
2838139 119 18343025493301128724
3103668 31 17829044665061310319
312425 54 11891332088765100516
3552219 110 18341618118845005493
38570 142 18195831603673521604
4058900 60 18187654591843744962
4098825 35 17417545630461819333
4258327 124 17314240044906403780
4516262 110 18335704897196014581
469060 322 17970088805659099243
474 4 18261397714993452576
57527295 17 17986695692031080454
5912855 24 18341335505565058611
6058803 2 18053095126117633099
7288768 16 17968388895746462106
7970288 3 10592042440812051556
9981440 41 18334013925605718994

> <PUBCHEM_SHAPE_MULTIPOLES>
606.95
16.82
4.37
1.7
2.7
2.55
0.01
-11.69
11.08
0.96
-3.59
-1.49
-0.33
-3.44

> <PUBCHEM_SHAPE_SELFOVERLAP>
1372.021

> <PUBCHEM_SHAPE_VOLUME>
322.7

> <PUBCHEM_COORDINATE_TYPE>
2
5
10

$$$$
