22557045
  -OEChem-10052120443D

 73 79  0     1  0  0  0  0  0999 V2000
   -9.6361    5.4246    0.4417 O   0  0  0  0  0  0  0  0  0  0  0  0
    5.7040    2.6620    0.9225 O   0  0  0  0  0  0  0  0  0  0  0  0
    5.2474    0.4669    2.5650 O   0  0  0  0  0  0  0  0  0  0  0  0
   -6.8584    0.8482    0.0869 N   0  0  0  0  0  0  0  0  0  0  0  0
    1.7436   -5.2454    0.2007 N   0  0  0  0  0  0  0  0  0  0  0  0
    1.9621   -1.1782   -0.5326 N   0  0  0  0  0  0  0  0  0  0  0  0
    3.0304   -3.2360   -0.1353 N   0  0  0  0  0  0  0  0  0  0  0  0
   -8.1058    2.6536    0.8448 C   0  0  1  0  0  0  0  0  0  0  0  0
   -6.7239    3.1201    0.5462 C   0  0  2  0  0  0  0  0  0  0  0  0
   -7.9000    3.8668   -0.0187 C   0  0  0  0  0  0  0  0  0  0  0  0
   -8.2543    1.2846    0.2546 C   0  0  0  0  0  0  0  0  0  0  0  0
   -6.0398    2.0319   -0.2234 C   0  0  0  0  0  0  0  0  0  0  0  0
   -8.2331    5.2041    0.5298 C   0  0  0  0  0  0  0  0  0  0  0  0
   -6.7172   -0.2051   -0.9064 C   0  0  0  0  0  0  0  0  0  0  0  0
   -5.4293   -0.9665   -0.7375 C   0  0  0  0  0  0  0  0  0  0  0  0
   -4.2779   -0.5445   -1.4024 C   0  0  0  0  0  0  0  0  0  0  0  0
   -5.3875   -2.0938    0.0830 C   0  0  0  0  0  0  0  0  0  0  0  0
   -3.0848   -1.2499   -1.2467 C   0  0  0  0  0  0  0  0  0  0  0  0
   -4.1943   -2.7992    0.2386 C   0  0  0  0  0  0  0  0  0  0  0  0
   -3.0429   -2.3773   -0.4263 C   0  0  0  0  0  0  0  0  0  0  0  0
   -1.8056   -3.1094   -0.2659 C   0  0  0  0  0  0  0  0  0  0  0  0
   -0.5835   -2.4507   -0.3582 C   0  0  0  0  0  0  0  0  0  0  0  0
   -1.8305   -4.4773   -0.0182 C   0  0  0  0  0  0  0  0  0  0  0  0
    0.6153   -3.1679   -0.2013 C   0  0  0  0  0  0  0  0  0  0  0  0
   -0.6340   -5.1835    0.1366 C   0  0  0  0  0  0  0  0  0  0  0  0
    0.6031   -4.5497    0.0492 C   0  0  0  0  0  0  0  0  0  0  0  0
    1.8697   -2.5699   -0.2820 C   0  0  0  0  0  0  0  0  0  0  0  0
    2.8951   -4.5509    0.1005 C   0  0  0  0  0  0  0  0  0  0  0  0
    2.9082   -0.2097   -0.1614 C   0  0  0  0  0  0  0  0  0  0  0  0
    3.6183   -0.3483    1.0312 C   0  0  0  0  0  0  0  0  0  0  0  0
    3.1386    0.8912   -0.9864 C   0  0  0  0  0  0  0  0  0  0  0  0
    4.5588    0.6139    1.3987 C   0  0  0  0  0  0  0  0  0  0  0  0
    4.0790    1.8535   -0.6188 C   0  0  0  0  0  0  0  0  0  0  0  0
    4.7891    1.7147    0.5737 C   0  0  0  0  0  0  0  0  0  0  0  0
    6.7662    2.8771    0.0615 C   0  0  0  0  0  0  0  0  0  0  0  0
    4.9527   -0.6864    3.3507 C   0  0  0  0  0  0  0  0  0  0  0  0
    7.4528    1.7923   -0.4838 C   0  0  0  0  0  0  0  0  0  0  0  0
    7.1507    4.1787   -0.2602 C   0  0  0  0  0  0  0  0  0  0  0  0
    8.5239    2.0090   -1.3508 C   0  0  0  0  0  0  0  0  0  0  0  0
    8.2216    4.3956   -1.1272 C   0  0  0  0  0  0  0  0  0  0  0  0
    8.9083    3.3107   -1.6724 C   0  0  0  0  0  0  0  0  0  0  0  0
   -8.4792    2.7527    1.8537 H   0  0  0  0  0  0  0  0  0  0  0  0
   -6.1358    3.5434    1.3476 H   0  0  0  0  0  0  0  0  0  0  0  0
   -8.1039    3.7901   -1.0794 H   0  0  0  0  0  0  0  0  0  0  0  0
   -8.7917    1.3410   -0.6998 H   0  0  0  0  0  0  0  0  0  0  0  0
   -8.7911    0.6124    0.9310 H   0  0  0  0  0  0  0  0  0  0  0  0
   -6.0341    2.2787   -1.2918 H   0  0  0  0  0  0  0  0  0  0  0  0
   -5.0103    1.9018    0.1239 H   0  0  0  0  0  0  0  0  0  0  0  0
   -7.9376    5.3055    1.5798 H   0  0  0  0  0  0  0  0  0  0  0  0
   -7.7247    5.9822   -0.0484 H   0  0  0  0  0  0  0  0  0  0  0  0
   -6.8068    0.1783   -1.9319 H   0  0  0  0  0  0  0  0  0  0  0  0
   -7.5394   -0.9269   -0.8005 H   0  0  0  0  0  0  0  0  0  0  0  0
   -9.8074    6.3142    0.7950 H   0  0  0  0  0  0  0  0  0  0  0  0
   -4.2992    0.3249   -2.0541 H   0  0  0  0  0  0  0  0  0  0  0  0
   -6.2754   -2.4276    0.6132 H   0  0  0  0  0  0  0  0  0  0  0  0
   -2.2230   -0.9030   -1.8104 H   0  0  0  0  0  0  0  0  0  0  0  0
   -4.2022   -3.6524    0.9113 H   0  0  0  0  0  0  0  0  0  0  0  0
   -0.5520   -1.3752   -0.5068 H   0  0  0  0  0  0  0  0  0  0  0  0
   -2.7545   -5.0467    0.0333 H   0  0  0  0  0  0  0  0  0  0  0  0
   -0.6801   -6.2549    0.3233 H   0  0  0  0  0  0  0  0  0  0  0  0
    1.3470   -0.8712   -1.2812 H   0  0  0  0  0  0  0  0  0  0  0  0
    3.8103   -5.1169    0.2241 H   0  0  0  0  0  0  0  0  0  0  0  0
    3.3922   -1.2101    1.6491 H   0  0  0  0  0  0  0  0  0  0  0  0
    2.5913    1.0125   -1.9177 H   0  0  0  0  0  0  0  0  0  0  0  0
    4.2383    2.7105   -1.2680 H   0  0  0  0  0  0  0  0  0  0  0  0
    3.9173   -0.6779    3.7082 H   0  0  0  0  0  0  0  0  0  0  0  0
    5.2053   -1.6117    2.8216 H   0  0  0  0  0  0  0  0  0  0  0  0
    5.5940   -0.6438    4.2372 H   0  0  0  0  0  0  0  0  0  0  0  0
    7.1864    0.7683   -0.2368 H   0  0  0  0  0  0  0  0  0  0  0  0
    6.6193    5.0274    0.1615 H   0  0  0  0  0  0  0  0  0  0  0  0
    9.0612    1.1645   -1.7723 H   0  0  0  0  0  0  0  0  0  0  0  0
    8.5211    5.4090   -1.3777 H   0  0  0  0  0  0  0  0  0  0  0  0
    9.7428    3.4794   -2.3466 H   0  0  0  0  0  0  0  0  0  0  0  0
  1 13  1  0  0  0  0
  1 53  1  0  0  0  0
  2 34  1  0  0  0  0
  2 35  1  0  0  0  0
  3 32  1  0  0  0  0
  3 36  1  0  0  0  0
  4 11  1  0  0  0  0
  4 12  1  0  0  0  0
  4 14  1  0  0  0  0
  5 26  1  0  0  0  0
  5 28  2  0  0  0  0
  6 27  1  0  0  0  0
  6 29  1  0  0  0  0
  6 61  1  0  0  0  0
  7 27  2  0  0  0  0
  7 28  1  0  0  0  0
  8  9  1  0  0  0  0
  8 10  1  0  0  0  0
  8 11  1  0  0  0  0
  8 42  1  0  0  0  0
  9 10  1  0  0  0  0
  9 12  1  0  0  0  0
  9 43  1  0  0  0  0
 10 13  1  0  0  0  0
 10 44  1  0  0  0  0
 11 45  1  0  0  0  0
 11 46  1  0  0  0  0
 12 47  1  0  0  0  0
 12 48  1  0  0  0  0
 13 49  1  0  0  0  0
 13 50  1  0  0  0  0
 14 15  1  0  0  0  0
 14 51  1  0  0  0  0
 14 52  1  0  0  0  0
 15 16  2  0  0  0  0
 15 17  1  0  0  0  0
 16 18  1  0  0  0  0
 16 54  1  0  0  0  0
 17 19  2  0  0  0  0
 17 55  1  0  0  0  0
 18 20  2  0  0  0  0
 18 56  1  0  0  0  0
 19 20  1  0  0  0  0
 19 57  1  0  0  0  0
 20 21  1  0  0  0  0
 21 22  2  0  0  0  0
 21 23  1  0  0  0  0
 22 24  1  0  0  0  0
 22 58  1  0  0  0  0
 23 25  2  0  0  0  0
 23 59  1  0  0  0  0
 24 26  2  0  0  0  0
 24 27  1  0  0  0  0
 25 26  1  0  0  0  0
 25 60  1  0  0  0  0
 28 62  1  0  0  0  0
 29 30  2  0  0  0  0
 29 31  1  0  0  0  0
 30 32  1  0  0  0  0
 30 63  1  0  0  0  0
 31 33  2  0  0  0  0
 31 64  1  0  0  0  0
 32 34  2  0  0  0  0
 33 34  1  0  0  0  0
 33 65  1  0  0  0  0
 35 37  2  0  0  0  0
 35 38  1  0  0  0  0
 36 66  1  0  0  0  0
 36 67  1  0  0  0  0
 36 68  1  0  0  0  0
 37 39  1  0  0  0  0
 37 69  1  0  0  0  0
 38 40  2  0  0  0  0
 38 70  1  0  0  0  0
 39 41  2  0  0  0  0
 39 71  1  0  0  0  0
 40 41  1  0  0  0  0
 40 72  1  0  0  0  0
 41 73  1  0  0  0  0
M  END
> <PUBCHEM_COMPOUND_CID>
22557045

> <PUBCHEM_CONFORMER_RMSD>
1.2

> <PUBCHEM_CONFORMER_DIVERSEORDER>
1
8
50
37
21
47
11
40
31
36
22
10
55
5
59
29
17
32
54
23
28
9
6
53
51
46
48
25
43
2
52
33
26
14
18
15
35
13
49
3
42
27
39
30
44
24
4
19
34
57
20
41
16
38
56
12
45
7
58

> <PUBCHEM_MMFF94_PARTIAL_CHARGES>
59
1 -0.68
10 -0.19
11 0.37
12 0.37
13 0.38
14 0.41
15 -0.14
16 -0.15
17 -0.15
18 -0.15
19 -0.15
2 -0.17
22 -0.15
23 -0.15
25 -0.15
26 0.31
27 0.41
28 0.47
29 0.1
3 -0.36
30 -0.15
31 -0.15
32 0.08
33 -0.15
34 0.08
35 0.08
36 0.28
37 -0.15
38 -0.15
39 -0.15
4 -0.81
40 -0.15
41 -0.15
42 0.1
43 0.1
44 0.1
5 -0.62
53 0.4
54 0.15
55 0.15
56 0.15
57 0.15
58 0.15
59 0.15
6 -0.6
60 0.15
61 0.4
62 0.15
63 0.15
64 0.15
65 0.15
69 0.15
7 -0.62
70 0.15
71 0.15
72 0.15
73 0.15
8 -0.19
9 -0.19

> <PUBCHEM_EFFECTIVE_ROTOR_COUNT>
9.8

> <PUBCHEM_PHARMACOPHORE_FEATURES>
14
1 1 acceptor
1 1 donor
1 2 acceptor
1 3 acceptor
1 4 cation
1 6 donor
3 5 7 28 cation
3 6 7 27 cation
6 15 16 17 18 19 20 rings
6 21 22 23 24 25 26 rings
6 29 30 31 32 33 34 rings
6 35 37 38 39 40 41 rings
6 4 8 9 10 11 12 rings
6 5 7 24 26 27 28 rings

> <PUBCHEM_HEAVY_ATOM_COUNT>
41

> <PUBCHEM_ATOM_DEF_STEREO_COUNT>
0

> <PUBCHEM_ATOM_UDEF_STEREO_COUNT>
2

> <PUBCHEM_BOND_DEF_STEREO_COUNT>
0

> <PUBCHEM_BOND_UDEF_STEREO_COUNT>
0

> <PUBCHEM_ISOTOPIC_ATOM_COUNT>
0

> <PUBCHEM_COMPONENT_COUNT>
1

> <PUBCHEM_CACTVS_TAUTO_COUNT>
3

> <PUBCHEM_CONFORMER_ID>
0158317500000001

> <PUBCHEM_MMFF94_ENERGY>
169.4814

> <PUBCHEM_FEATURE_SELFOVERLAP>
71.226

> <PUBCHEM_SHAPE_FINGERPRINT>
10771551 21 17988927726152432849
10864689 126 18200311156032619152
10917259 69 18410576223958696748
11331860 1 18339363084583881929
1200032 147 18259703424021846986
12013929 29 18341612590098092935
12522641 68 18130224960331559887
12975358 362 18261943056130262437
13008946 267 18338802208370755367
13944108 23 18341613656004849814
14664723 55 18335983185280410244
15064981 113 17060349538962988542
15198563 99 17483661674724429463
15439362 3 18410858759196763318
16728433 281 18263928920443815716
19053607 189 18341039770499736411
19304152 47 18264498445828721435
19304671 126 17917721162397745677
19309040 13 18272645723958500703
20691028 202 18269550543307999163
23522609 53 17533495897344910596
23569914 152 17702121183789295958
23569914 2 16483844909532249744
393628 194 18337669836428798037
4366758 26 18263649622372420084
437795 171 18189890916901403829
4516262 110 18409158893287853703
5951187 136 18129103329611380391
59584819 99 17692538811358488409
6036956 94 18200036115297090121
6176135 31 18337101281405463065
6673363 416 18198904906894513287
9896288 288 17754737461996394722

> <PUBCHEM_SHAPE_MULTIPOLES>
806.23
30.46
9.12
1.49
11.58
1.15
1.08
-62.73
-1.69
6.3
0.04
-3.04
-0.36
-5.04

> <PUBCHEM_SHAPE_SELFOVERLAP>
1793.13

> <PUBCHEM_SHAPE_VOLUME>
430.6

> <PUBCHEM_COORDINATE_TYPE>
2
5
10

$$$$
