49765254
  -OEChem-10052115163D

 60 63  0     0  0  0  0  0  0999 V2000
   -5.5442   -0.8815   -2.8864 Cl  0  0  0  0  0  0  0  0  0  0  0  0
    3.6310    0.4899   -0.0236 N   0  0  0  0  0  0  0  0  0  0  0  0
    7.5902   -0.9997    0.0096 N   0  0  0  0  0  0  0  0  0  0  0  0
   -0.0369    0.8566   -0.0027 N   0  0  0  0  0  0  0  0  0  0  0  0
   -1.4100    2.7626    0.3961 N   0  0  0  0  0  0  0  0  0  0  0  0
   -4.0043   -3.1068   -0.3133 N   0  0  0  0  0  0  0  0  0  0  0  0
   -2.7979    0.9288   -0.0332 N   0  0  0  0  0  0  0  0  0  0  0  0
   -4.6645   -2.9292   -1.4704 N   0  0  0  0  0  0  0  0  0  0  0  0
   -3.7241    3.1042    0.4332 N   0  0  0  0  0  0  0  0  0  0  0  0
    6.2089   -0.7599   -0.4008 C   0  0  0  0  0  0  0  0  0  0  0  0
    5.2479   -1.2243    0.6953 C   0  0  0  0  0  0  0  0  0  0  0  0
    5.9953    0.7299   -0.6772 C   0  0  0  0  0  0  0  0  0  0  0  0
    3.7944   -0.9260    0.3247 C   0  0  0  0  0  0  0  0  0  0  0  0
    4.5412    1.0196   -1.0487 C   0  0  0  0  0  0  0  0  0  0  0  0
    2.3683    1.0844    0.0872 C   0  0  0  0  0  0  0  0  0  0  0  0
    8.5175   -0.5813   -1.0416 C   0  0  0  0  0  0  0  0  0  0  0  0
    7.7907   -2.4123    0.3338 C   0  0  0  0  0  0  0  0  0  0  0  0
    2.2364    2.4365    0.3838 C   0  0  0  0  0  0  0  0  0  0  0  0
    1.2110    0.3448   -0.0953 C   0  0  0  0  0  0  0  0  0  0  0  0
    0.9693    2.9995    0.4875 C   0  0  0  0  0  0  0  0  0  0  0  0
   -0.1255    2.1742    0.2871 C   0  0  0  0  0  0  0  0  0  0  0  0
   -2.9655   -1.9409    1.6099 C   0  0  0  0  0  0  0  0  0  0  0  0
   -3.6891   -1.9436    0.3256 C   0  0  0  0  0  0  0  0  0  0  0  0
   -4.1765   -0.9349   -0.4691 C   0  0  0  0  0  0  0  0  0  0  0  0
   -3.7449   -2.6436    2.7465 C   0  0  0  0  0  0  0  0  0  0  0  0
   -1.5500   -2.5575    1.5093 C   0  0  0  0  0  0  0  0  0  0  0  0
   -4.0570    0.4604   -0.1576 C   0  0  0  0  0  0  0  0  0  0  0  0
   -2.7059    2.2403    0.2588 C   0  0  0  0  0  0  0  0  0  0  0  0
   -4.7668   -1.6004   -1.5601 C   0  0  0  0  0  0  0  0  0  0  0  0
   -5.1843    1.2412   -0.0030 C   0  0  0  0  0  0  0  0  0  0  0  0
   -4.9548    2.5689    0.2947 C   0  0  0  0  0  0  0  0  0  0  0  0
    5.9831   -1.3215   -1.3192 H   0  0  0  0  0  0  0  0  0  0  0  0
    5.4861   -0.7253    1.6444 H   0  0  0  0  0  0  0  0  0  0  0  0
    5.3052   -2.3041    0.8683 H   0  0  0  0  0  0  0  0  0  0  0  0
    6.6069    1.0877   -1.5118 H   0  0  0  0  0  0  0  0  0  0  0  0
    6.2664    1.3226    0.2069 H   0  0  0  0  0  0  0  0  0  0  0  0
    3.1670   -1.1904    1.1852 H   0  0  0  0  0  0  0  0  0  0  0  0
    3.4901   -1.5552   -0.5211 H   0  0  0  0  0  0  0  0  0  0  0  0
    4.3003    0.5613   -2.0163 H   0  0  0  0  0  0  0  0  0  0  0  0
    4.4309    2.1034   -1.1710 H   0  0  0  0  0  0  0  0  0  0  0  0
    8.2701   -1.0152   -2.0173 H   0  0  0  0  0  0  0  0  0  0  0  0
    8.5714    0.5077   -1.1324 H   0  0  0  0  0  0  0  0  0  0  0  0
    9.5413   -0.8876   -0.7939 H   0  0  0  0  0  0  0  0  0  0  0  0
    7.3171   -2.6868    1.2815 H   0  0  0  0  0  0  0  0  0  0  0  0
    7.4369   -3.0808   -0.4597 H   0  0  0  0  0  0  0  0  0  0  0  0
    8.8561   -2.6222    0.4901 H   0  0  0  0  0  0  0  0  0  0  0  0
    3.1086    3.0632    0.5500 H   0  0  0  0  0  0  0  0  0  0  0  0
    1.2289   -0.7117   -0.3430 H   0  0  0  0  0  0  0  0  0  0  0  0
    0.8614    4.0536    0.7217 H   0  0  0  0  0  0  0  0  0  0  0  0
   -2.8252   -0.9039    1.9395 H   0  0  0  0  0  0  0  0  0  0  0  0
   -1.4061    3.7539    0.6159 H   0  0  0  0  0  0  0  0  0  0  0  0
   -3.2110   -2.5483    3.6979 H   0  0  0  0  0  0  0  0  0  0  0  0
   -4.7375   -2.1959    2.8680 H   0  0  0  0  0  0  0  0  0  0  0  0
   -3.8810   -3.7106    2.5386 H   0  0  0  0  0  0  0  0  0  0  0  0
   -0.9648   -2.0566    0.7309 H   0  0  0  0  0  0  0  0  0  0  0  0
   -1.0138   -2.4518    2.4583 H   0  0  0  0  0  0  0  0  0  0  0  0
   -1.5948   -3.6236    1.2609 H   0  0  0  0  0  0  0  0  0  0  0  0
   -3.8020   -4.0546   -0.0201 H   0  0  0  0  0  0  0  0  0  0  0  0
   -6.1916    0.8551   -0.0998 H   0  0  0  0  0  0  0  0  0  0  0  0
   -5.7792    3.2598    0.4355 H   0  0  0  0  0  0  0  0  0  0  0  0
  1 29  1  0  0  0  0
  2 13  1  0  0  0  0
  2 14  1  0  0  0  0
  2 15  1  0  0  0  0
  3 10  1  0  0  0  0
  3 16  1  0  0  0  0
  3 17  1  0  0  0  0
  4 19  1  0  0  0  0
  4 21  2  0  0  0  0
  5 21  1  0  0  0  0
  5 28  1  0  0  0  0
  5 51  1  0  0  0  0
  6  8  1  0  0  0  0
  6 23  1  0  0  0  0
  6 58  1  0  0  0  0
  7 27  2  0  0  0  0
  7 28  1  0  0  0  0
  8 29  2  0  0  0  0
  9 28  2  0  0  0  0
  9 31  1  0  0  0  0
 10 11  1  0  0  0  0
 10 12  1  0  0  0  0
 10 32  1  0  0  0  0
 11 13  1  0  0  0  0
 11 33  1  0  0  0  0
 11 34  1  0  0  0  0
 12 14  1  0  0  0  0
 12 35  1  0  0  0  0
 12 36  1  0  0  0  0
 13 37  1  0  0  0  0
 13 38  1  0  0  0  0
 14 39  1  0  0  0  0
 14 40  1  0  0  0  0
 15 18  1  0  0  0  0
 15 19  2  0  0  0  0
 16 41  1  0  0  0  0
 16 42  1  0  0  0  0
 16 43  1  0  0  0  0
 17 44  1  0  0  0  0
 17 45  1  0  0  0  0
 17 46  1  0  0  0  0
 18 20  2  0  0  0  0
 18 47  1  0  0  0  0
 19 48  1  0  0  0  0
 20 21  1  0  0  0  0
 20 49  1  0  0  0  0
 22 23  1  0  0  0  0
 22 25  1  0  0  0  0
 22 26  1  0  0  0  0
 22 50  1  0  0  0  0
 23 24  2  0  0  0  0
 24 27  1  0  0  0  0
 24 29  1  0  0  0  0
 25 52  1  0  0  0  0
 25 53  1  0  0  0  0
 25 54  1  0  0  0  0
 26 55  1  0  0  0  0
 26 56  1  0  0  0  0
 26 57  1  0  0  0  0
 27 30  1  0  0  0  0
 30 31  2  0  0  0  0
 30 59  1  0  0  0  0
 31 60  1  0  0  0  0
M  END
> <PUBCHEM_COMPOUND_CID>
49765254

> <PUBCHEM_CONFORMER_RMSD>
1.2

> <PUBCHEM_CONFORMER_DIVERSEORDER>
1
28
105
82
61
16
38
84
45
89
100
98
12
65
26
68
103
59
49
73
85
97
81
71
83
52
101
87
6
18
23
76
50
62
90
106
91
95
35
102
104
72
40
111
44
64
60
109
92
56
47
42
25
41
34
55
108
31
20
107
33
48
75
21
5
67
51
14
74
110
54
8
86
15
7
19
66
79
77
11
4
69
36
88
10
27
13
99
37
17
22
80
32
78
63
39
9
24
30
43
96
53
70
57
94
93
2
29
58
46
3

> <PUBCHEM_MMFF94_PARTIAL_CHARGES>
34
1 -0.12
10 0.27
13 0.37
14 0.37
15 0.1
16 0.27
17 0.27
18 -0.15
19 0.16
2 -0.84
20 -0.15
21 0.41
22 0.18
23 -0.33
24 -0.05
27 0.36
28 0.72
29 0.41
3 -0.81
30 -0.15
31 0.16
4 -0.62
47 0.15
48 0.15
49 0.15
5 -0.6
51 0.4
58 0.27
59 0.15
6 0.3
60 0.15
7 -0.62
8 -0.71
9 -0.62

> <PUBCHEM_EFFECTIVE_ROTOR_COUNT>
7.2

> <PUBCHEM_PHARMACOPHORE_FEATURES>
12
1 2 cation
1 3 cation
1 5 donor
1 6 donor
1 7 acceptor
1 8 acceptor
3 22 25 26 hydrophobe
4 5 7 9 28 cation
5 6 8 23 24 29 rings
6 2 10 11 12 13 14 rings
6 4 15 18 19 20 21 rings
6 7 9 27 28 30 31 rings

> <PUBCHEM_HEAVY_ATOM_COUNT>
31

> <PUBCHEM_ATOM_DEF_STEREO_COUNT>
0

> <PUBCHEM_ATOM_UDEF_STEREO_COUNT>
0

> <PUBCHEM_BOND_DEF_STEREO_COUNT>
0

> <PUBCHEM_BOND_UDEF_STEREO_COUNT>
0

> <PUBCHEM_ISOTOPIC_ATOM_COUNT>
0

> <PUBCHEM_COMPONENT_COUNT>
1

> <PUBCHEM_CACTVS_TAUTO_COUNT>
30

> <PUBCHEM_CONFORMER_ID>
02F75B8600000001

> <PUBCHEM_MMFF94_ENERGY>
89.2735

> <PUBCHEM_FEATURE_SELFOVERLAP>
60.896

> <PUBCHEM_SHAPE_FINGERPRINT>
10369192 42 13190344543539008729
11135926 11 17749388122861517922
11227688 84 17761780967468222791
11524674 6 17131826534573227941
11963148 33 18271802373013279478
12124843 1 18188195624152203311
12645989 146 18270682111723106903
13583140 156 14117259242680972547
1361 4 18269837520206992270
13782708 43 17917993884895692762
14279260 333 18336541625766440802
14461889 52 18341886425536285976
14866123 147 18341898511510660627
14931854 50 18187630432505219687
15064986 266 18261964028497519673
15183329 4 17749102292946191858
15250474 111 18335410240938142778
15351339 4 17967807232911235122
15361156 5 18410859875497480356
17492 89 18196930187636035861
17627616 140 17897434009013966259
19315092 285 16413776336328903919
19958102 18 18040711468240219526
20775438 99 16831466647488681063
21133410 171 17404240530903316831
21236236 1 18410015429076167872
22899556 105 18191001569959493359
23428019 142 17967254212557971098
23559900 14 18337666541819759289
249057 3 18336266752159875373
25025965 108 18058431146242544054
335352 9 18411979123133192093
3383291 50 18410288142958652059
395649 100 18187652406027183434
397830 11 17131249360468538288
4073 2 18333737931508320472
44802255 64 16588017992782550703
4616759 239 17631442376804799184
4625314 4 18341054000734326524
469060 322 11239996781064605757
49967989 163 18262817236884088142
5104073 3 17917430964184701649
5171179 24 18129372864177678688
531348 171 18342740719304549735
559249 180 18411981326208470773
58902169 19 17676782989761102460
59755656 520 17603308146424795417
6431902 208 18408890663273280682
9709674 26 18266456706070711241
999808 66 17895492374948607369

> <PUBCHEM_SHAPE_MULTIPOLES>
599.99
20.19
4.01
1.64
39.65
0.33
-0.32
-10.83
-6.64
-4.6
1.3
-3.14
-1.5
-0.77

> <PUBCHEM_SHAPE_SELFOVERLAP>
1272.682

> <PUBCHEM_SHAPE_VOLUME>
333.5

> <PUBCHEM_COORDINATE_TYPE>
2
5
10

$$$$
