21060786
  -OEChem-10052115193D

 58 61  0     0  0  0  0  0  0999 V2000
    3.1942    2.6824   -0.7288 O   0  0  0  0  0  0  0  0  0  0  0  0
   -4.2516   -3.2026    1.0458 O   0  0  0  0  0  0  0  0  0  0  0  0
   -0.8199   -1.9602   -2.0552 O   0  0  0  0  0  0  0  0  0  0  0  0
   -2.2895   -3.9250   -0.7702 O   0  0  0  0  0  0  0  0  0  0  0  0
    4.0012    1.5736   -0.5051 N   0  0  0  0  0  0  0  0  0  0  0  0
    1.0121    3.3910   -0.4065 N   0  0  0  0  0  0  0  0  0  0  0  0
   -1.1546    2.3916   -0.0548 N   0  0  0  0  0  0  0  0  0  0  0  0
   -3.2727    1.4436    0.2924 N   0  0  0  0  0  0  0  0  0  0  0  0
   -3.0300    3.7576    0.5967 N   0  0  0  0  0  0  0  0  0  0  0  0
    3.7508   -0.6772    0.4759 C   0  0  0  0  0  0  0  0  0  0  0  0
    4.8618   -0.5717    1.5367 C   0  0  0  0  0  0  0  0  0  0  0  0
    4.2270   -1.4928   -0.7401 C   0  0  0  0  0  0  0  0  0  0  0  0
    5.3856   -1.9487    1.9408 C   0  0  0  0  0  0  0  0  0  0  0  0
    4.7539   -2.8652   -0.3249 C   0  0  0  0  0  0  0  0  0  0  0  0
    5.8503   -2.7521    0.7299 C   0  0  0  0  0  0  0  0  0  0  0  0
    3.2023    0.6773    0.0810 C   0  0  0  0  0  0  0  0  0  0  0  0
    1.8932    1.1599    0.2513 C   0  0  0  0  0  0  0  0  0  0  0  0
    1.9414    2.4240   -0.2742 C   0  0  0  0  0  0  0  0  0  0  0  0
   -0.3929    3.5051   -0.0597 C   0  0  0  0  0  0  0  0  0  0  0  0
   -0.8710    4.7626    0.2478 C   0  0  0  0  0  0  0  0  0  0  0  0
   -2.4449    2.5873    0.2774 C   0  0  0  0  0  0  0  0  0  0  0  0
   -3.0246    0.0849    0.0225 C   0  0  0  0  0  0  0  0  0  0  0  0
   -2.2106    4.8292    0.5719 C   0  0  0  0  0  0  0  0  0  0  0  0
   -2.0358   -0.2752   -0.8930 C   0  0  0  0  0  0  0  0  0  0  0  0
   -3.7667   -0.9020    0.6714 C   0  0  0  0  0  0  0  0  0  0  0  0
   -3.5202   -2.2488    0.4048 C   0  0  0  0  0  0  0  0  0  0  0  0
   -1.7892   -1.6220   -1.1597 C   0  0  0  0  0  0  0  0  0  0  0  0
   -2.5314   -2.6087   -0.5108 C   0  0  0  0  0  0  0  0  0  0  0  0
   -5.2426   -2.7498    1.9661 C   0  0  0  0  0  0  0  0  0  0  0  0
   -0.1077   -0.8909   -2.6742 C   0  0  0  0  0  0  0  0  0  0  0  0
   -1.3181   -4.5772    0.0447 C   0  0  0  0  0  0  0  0  0  0  0  0
    2.9196   -1.2348    0.9329 H   0  0  0  0  0  0  0  0  0  0  0  0
    5.6955    0.0308    1.1533 H   0  0  0  0  0  0  0  0  0  0  0  0
    4.4842   -0.0515    2.4257 H   0  0  0  0  0  0  0  0  0  0  0  0
    5.0189   -0.9507   -1.2732 H   0  0  0  0  0  0  0  0  0  0  0  0
    3.4024   -1.6205   -1.4525 H   0  0  0  0  0  0  0  0  0  0  0  0
    6.2156   -1.8337    2.6471 H   0  0  0  0  0  0  0  0  0  0  0  0
    4.5950   -2.5005    2.4641 H   0  0  0  0  0  0  0  0  0  0  0  0
    3.9274   -3.4688    0.0702 H   0  0  0  0  0  0  0  0  0  0  0  0
    5.1415   -3.3918   -1.2042 H   0  0  0  0  0  0  0  0  0  0  0  0
    6.1592   -3.7539    1.0491 H   0  0  0  0  0  0  0  0  0  0  0  0
    6.7321   -2.2708    0.2893 H   0  0  0  0  0  0  0  0  0  0  0  0
    1.0445    0.6582    0.6926 H   0  0  0  0  0  0  0  0  0  0  0  0
    1.3302    4.2539   -0.8456 H   0  0  0  0  0  0  0  0  0  0  0  0
   -0.2483    5.6483    0.2414 H   0  0  0  0  0  0  0  0  0  0  0  0
   -4.1926    1.6361    0.6773 H   0  0  0  0  0  0  0  0  0  0  0  0
   -2.6762    5.7747    0.8286 H   0  0  0  0  0  0  0  0  0  0  0  0
   -1.5168    0.5110   -1.4236 H   0  0  0  0  0  0  0  0  0  0  0  0
   -4.5208   -0.5620    1.3739 H   0  0  0  0  0  0  0  0  0  0  0  0
   -4.7955   -2.2102    2.8081 H   0  0  0  0  0  0  0  0  0  0  0  0
   -6.0244   -2.1690    1.4648 H   0  0  0  0  0  0  0  0  0  0  0  0
   -5.7265   -3.6400    2.3815 H   0  0  0  0  0  0  0  0  0  0  0  0
   -0.7641   -0.2772   -3.3005 H   0  0  0  0  0  0  0  0  0  0  0  0
    0.4497   -0.2976   -1.9433 H   0  0  0  0  0  0  0  0  0  0  0  0
    0.6330   -1.3433   -3.3421 H   0  0  0  0  0  0  0  0  0  0  0  0
   -0.3397   -4.0986   -0.0640 H   0  0  0  0  0  0  0  0  0  0  0  0
   -1.6263   -4.5666    1.0949 H   0  0  0  0  0  0  0  0  0  0  0  0
   -1.2368   -5.6167   -0.2849 H   0  0  0  0  0  0  0  0  0  0  0  0
  1  5  1  0  0  0  0
  1 18  1  0  0  0  0
  2 26  1  0  0  0  0
  2 29  1  0  0  0  0
  3 27  1  0  0  0  0
  3 30  1  0  0  0  0
  4 28  1  0  0  0  0
  4 31  1  0  0  0  0
  5 16  2  0  0  0  0
  6 18  1  0  0  0  0
  6 19  1  0  0  0  0
  6 44  1  0  0  0  0
  7 19  2  0  0  0  0
  7 21  1  0  0  0  0
  8 21  1  0  0  0  0
  8 22  1  0  0  0  0
  8 46  1  0  0  0  0
  9 21  2  0  0  0  0
  9 23  1  0  0  0  0
 10 11  1  0  0  0  0
 10 12  1  0  0  0  0
 10 16  1  0  0  0  0
 10 32  1  0  0  0  0
 11 13  1  0  0  0  0
 11 33  1  0  0  0  0
 11 34  1  0  0  0  0
 12 14  1  0  0  0  0
 12 35  1  0  0  0  0
 12 36  1  0  0  0  0
 13 15  1  0  0  0  0
 13 37  1  0  0  0  0
 13 38  1  0  0  0  0
 14 15  1  0  0  0  0
 14 39  1  0  0  0  0
 14 40  1  0  0  0  0
 15 41  1  0  0  0  0
 15 42  1  0  0  0  0
 16 17  1  0  0  0  0
 17 18  2  0  0  0  0
 17 43  1  0  0  0  0
 19 20  1  0  0  0  0
 20 23  2  0  0  0  0
 20 45  1  0  0  0  0
 22 24  2  0  0  0  0
 22 25  1  0  0  0  0
 23 47  1  0  0  0  0
 24 27  1  0  0  0  0
 24 48  1  0  0  0  0
 25 26  2  0  0  0  0
 25 49  1  0  0  0  0
 26 28  1  0  0  0  0
 27 28  2  0  0  0  0
 29 50  1  0  0  0  0
 29 51  1  0  0  0  0
 29 52  1  0  0  0  0
 30 53  1  0  0  0  0
 30 54  1  0  0  0  0
 30 55  1  0  0  0  0
 31 56  1  0  0  0  0
 31 57  1  0  0  0  0
 31 58  1  0  0  0  0
M  END
> <PUBCHEM_COMPOUND_CID>
21060786

> <PUBCHEM_CONFORMER_RMSD>
1

> <PUBCHEM_CONFORMER_DIVERSEORDER>
3
62
69
15
27
56
67
48
41
43
31
61
73
63
9
74
45
10
54
17
65
49
51
37
26
55
57
23
53
11
68
25
52
71
76
29
66
32
18
24
59
47
58
30
42
1
33
20
38
21
40
70
72
50
6
34
60
19
2
5
22
28
64
7
39
14
36
16
8
35
44
13
4
12
46
75

> <PUBCHEM_MMFF94_PARTIAL_CHARGES>
33
1 -0.02
10 0.18
16 0.11
17 -0.15
18 0.22
19 0.41
2 -0.36
20 -0.15
21 0.72
22 0.1
23 0.16
24 -0.15
25 -0.15
26 0.08
27 0.08
28 0.08
29 0.28
3 -0.36
30 0.28
31 0.28
4 -0.36
43 0.15
44 0.4
45 0.15
46 0.4
47 0.15
48 0.15
49 0.15
5 -0.41
6 -0.58
7 -0.62
8 -0.6
9 -0.62

> <PUBCHEM_EFFECTIVE_ROTOR_COUNT>
9.2

> <PUBCHEM_PHARMACOPHORE_FEATURES>
11
1 2 acceptor
1 3 acceptor
1 4 acceptor
1 5 acceptor
1 6 donor
1 8 donor
4 7 8 9 21 cation
5 1 5 16 17 18 rings
6 10 11 12 13 14 15 rings
6 22 24 25 26 27 28 rings
6 7 9 19 20 21 23 rings

> <PUBCHEM_HEAVY_ATOM_COUNT>
31

> <PUBCHEM_ATOM_DEF_STEREO_COUNT>
0

> <PUBCHEM_ATOM_UDEF_STEREO_COUNT>
0

> <PUBCHEM_BOND_DEF_STEREO_COUNT>
0

> <PUBCHEM_BOND_UDEF_STEREO_COUNT>
0

> <PUBCHEM_ISOTOPIC_ATOM_COUNT>
0

> <PUBCHEM_COMPONENT_COUNT>
1

> <PUBCHEM_CACTVS_TAUTO_COUNT>
17

> <PUBCHEM_CONFORMER_ID>
01415CB200000003

> <PUBCHEM_MMFF94_ENERGY>
110.2391

> <PUBCHEM_FEATURE_SELFOVERLAP>
55.831

> <PUBCHEM_SHAPE_FINGERPRINT>
10462674 125 16122414576799559094
11014199 57 18339072791680168218
11421498 54 18118133691311436332
11524674 6 17341509870822742676
12107183 9 18125460832957077491
12422481 6 18058190365889986947
12553582 1 18125437767875356701
12788726 201 18336554892824738688
12925494 130 17978509728745737659
13726171 33 18056229949923119244
14725015 67 18270109103198760617
14866123 147 18122341285438347683
14932702 115 17266142768260085412
15320294 125 17391911453769955114
15403338 16 18191301791887559447
15475509 35 17175763273403520755
15927050 60 17333363507563695685
16110190 28 18339922594278418552
16719943 64 17979071583334246536
16728300 4 17607800595932106227
17492 89 18408606976430188442
19319366 153 17614290282937613724
19930381 70 17545316844547698947
20531524 4 17840894896172543396
20775530 9 18338515369090914820
21304304 249 18266180517919095765
229767 44 18050280367480900176
238918 7 17771341972590350334
3383291 50 18266453205687884097
3882209 13 17837732915574856454
44880168 125 17417546764776603078
463206 1 17903362846092984770
508706 21 18126572219230436334
5309563 4 17835521900659519342
7097593 13 18051131689875366967
79837 15 18053387595725669233

> <PUBCHEM_SHAPE_MULTIPOLES>
589.58
11.18
7.32
1.55
13.65
3.72
-0.35
-9.27
5.67
-6.84
0.86
0.09
-1.25
-0.41

> <PUBCHEM_SHAPE_SELFOVERLAP>
1257.917

> <PUBCHEM_SHAPE_VOLUME>
324.6

> <PUBCHEM_COORDINATE_TYPE>
2
5
10

$$$$
