24856436
  -OEChem-10052115183D

 69 73  0     0  0  0  0  0  0999 V2000
    2.3071    5.0300   -1.7277 O   0  0  0  0  0  0  0  0  0  0  0  0
    5.3850   -2.8505   -0.2607 O   0  0  0  0  0  0  0  0  0  0  0  0
   -5.3956    0.0048    0.0805 N   0  0  0  0  0  0  0  0  0  0  0  0
   -7.6562    1.6193    0.7460 N   0  0  0  0  0  0  0  0  0  0  0  0
    2.8600   -0.4946    0.2936 N   0  0  0  0  0  0  0  0  0  0  0  0
    4.2291   -0.8463    0.2321 N   0  0  0  0  0  0  0  0  0  0  0  0
   -0.9443   -3.2940   -0.7308 N   0  0  0  0  0  0  0  0  0  0  0  0
    0.8141   -1.8394   -0.1946 N   0  0  0  0  0  0  0  0  0  0  0  0
    3.0310    1.7495   -0.4740 N   0  0  0  0  0  0  0  0  0  0  0  0
    1.2415   -4.1332   -0.8868 N   0  0  0  0  0  0  0  0  0  0  0  0
   -5.2044    1.3890    0.5241 C   0  0  0  0  0  0  0  0  0  0  0  0
   -6.6551   -0.6267    0.4942 C   0  0  0  0  0  0  0  0  0  0  0  0
   -6.4396    2.2327    0.1997 C   0  0  0  0  0  0  0  0  0  0  0  0
   -7.8431    0.2819    0.1697 C   0  0  0  0  0  0  0  0  0  0  0  0
   -4.2829   -0.8189   -0.1229 C   0  0  0  0  0  0  0  0  0  0  0  0
   -8.8211    2.4612    0.4763 C   0  0  0  0  0  0  0  0  0  0  0  0
   -4.3330   -1.8358   -1.0765 C   0  0  0  0  0  0  0  0  0  0  0  0
   -3.1242   -0.6244    0.6290 C   0  0  0  0  0  0  0  0  0  0  0  0
    2.1405   -1.6747   -0.0673 C   0  0  0  0  0  0  0  0  0  0  0  0
   -2.0658   -2.4634   -0.5261 C   0  0  0  0  0  0  0  0  0  0  0  0
   -3.2245   -2.6581   -1.2780 C   0  0  0  0  0  0  0  0  0  0  0  0
   -2.0158   -1.4466    0.4275 C   0  0  0  0  0  0  0  0  0  0  0  0
    3.0312   -2.6906   -0.3603 C   0  0  0  0  0  0  0  0  0  0  0  0
    3.2436    4.0216   -1.2840 C   0  0  0  0  0  0  0  0  0  0  0  0
    2.4044    0.8415    0.3072 C   0  0  0  0  0  0  0  0  0  0  0  0
    4.3776   -2.1751   -0.1549 C   0  0  0  0  0  0  0  0  0  0  0  0
    2.5559    3.0142   -0.4239 C   0  0  0  0  0  0  0  0  0  0  0  0
    5.2339   -0.1045    0.9613 C   0  0  0  0  0  0  0  0  0  0  0  0
    0.4407   -3.0769   -0.5962 C   0  0  0  0  0  0  0  0  0  0  0  0
    2.5641   -3.9114   -0.7613 C   0  0  0  0  0  0  0  0  0  0  0  0
    1.3309    1.1367    1.1319 C   0  0  0  0  0  0  0  0  0  0  0  0
    3.8601    3.4532   -2.5873 C   0  0  0  0  0  0  0  0  0  0  0  0
    4.3463    4.7571   -0.4903 C   0  0  0  0  0  0  0  0  0  0  0  0
    1.4893    3.4113    0.3663 C   0  0  0  0  0  0  0  0  0  0  0  0
    0.8706    2.4485    1.1561 C   0  0  0  0  0  0  0  0  0  0  0  0
    5.2327   -0.5517    2.3852 C   0  0  0  0  0  0  0  0  0  0  0  0
    5.0159    0.2643    3.4229 C   0  0  0  0  0  0  0  0  0  0  0  0
   -5.0176    1.4124    1.6055 H   0  0  0  0  0  0  0  0  0  0  0  0
   -4.3418    1.8427    0.0202 H   0  0  0  0  0  0  0  0  0  0  0  0
   -6.6187   -0.8298    1.5724 H   0  0  0  0  0  0  0  0  0  0  0  0
   -6.8139   -1.5871   -0.0093 H   0  0  0  0  0  0  0  0  0  0  0  0
   -6.2959    3.2308    0.6312 H   0  0  0  0  0  0  0  0  0  0  0  0
   -6.5235    2.3568   -0.8886 H   0  0  0  0  0  0  0  0  0  0  0  0
   -7.9716    0.3430   -0.9195 H   0  0  0  0  0  0  0  0  0  0  0  0
   -8.7494   -0.1796    0.5801 H   0  0  0  0  0  0  0  0  0  0  0  0
   -8.6971    3.4475    0.9373 H   0  0  0  0  0  0  0  0  0  0  0  0
   -8.9933    2.6014   -0.5970 H   0  0  0  0  0  0  0  0  0  0  0  0
   -9.7232    2.0210    0.9156 H   0  0  0  0  0  0  0  0  0  0  0  0
   -5.2213   -1.9943   -1.6826 H   0  0  0  0  0  0  0  0  0  0  0  0
   -3.0584    0.1418    1.3963 H   0  0  0  0  0  0  0  0  0  0  0  0
   -3.2746   -3.4443   -2.0271 H   0  0  0  0  0  0  0  0  0  0  0  0
   -1.1545   -1.2912    1.0684 H   0  0  0  0  0  0  0  0  0  0  0  0
    5.0818    0.9722    0.8533 H   0  0  0  0  0  0  0  0  0  0  0  0
    6.2110   -0.3441    0.5261 H   0  0  0  0  0  0  0  0  0  0  0  0
   -1.1590   -4.1879   -1.1626 H   0  0  0  0  0  0  0  0  0  0  0  0
    3.2156   -4.7425   -0.9978 H   0  0  0  0  0  0  0  0  0  0  0  0
    0.8561    0.3861    1.7551 H   0  0  0  0  0  0  0  0  0  0  0  0
    4.2880    4.2518   -3.2043 H   0  0  0  0  0  0  0  0  0  0  0  0
    4.6474    2.7208   -2.3783 H   0  0  0  0  0  0  0  0  0  0  0  0
    3.0894    2.9645   -3.1951 H   0  0  0  0  0  0  0  0  0  0  0  0
    3.9232    5.2807    0.3752 H   0  0  0  0  0  0  0  0  0  0  0  0
    5.1111    4.0611   -0.1284 H   0  0  0  0  0  0  0  0  0  0  0  0
    4.8343    5.5209   -1.1066 H   0  0  0  0  0  0  0  0  0  0  0  0
    1.1344    4.4356    0.3978 H   0  0  0  0  0  0  0  0  0  0  0  0
    0.0342    2.7206    1.7929 H   0  0  0  0  0  0  0  0  0  0  0  0
    5.4416   -1.5990    2.5897 H   0  0  0  0  0  0  0  0  0  0  0  0
    2.8010    5.7064   -2.2221 H   0  0  0  0  0  0  0  0  0  0  0  0
    4.8117    1.3197    3.2804 H   0  0  0  0  0  0  0  0  0  0  0  0
    5.0380   -0.1185    4.4373 H   0  0  0  0  0  0  0  0  0  0  0  0
  1 24  1  0  0  0  0
  1 67  1  0  0  0  0
  2 26  2  0  0  0  0
  3 11  1  0  0  0  0
  3 12  1  0  0  0  0
  3 15  1  0  0  0  0
  4 13  1  0  0  0  0
  4 14  1  0  0  0  0
  4 16  1  0  0  0  0
  5  6  1  0  0  0  0
  5 19  1  0  0  0  0
  5 25  1  0  0  0  0
  6 26  1  0  0  0  0
  6 28  1  0  0  0  0
  7 20  1  0  0  0  0
  7 29  1  0  0  0  0
  7 55  1  0  0  0  0
  8 19  2  0  0  0  0
  8 29  1  0  0  0  0
  9 25  1  0  0  0  0
  9 27  2  0  0  0  0
 10 29  2  0  0  0  0
 10 30  1  0  0  0  0
 11 13  1  0  0  0  0
 11 38  1  0  0  0  0
 11 39  1  0  0  0  0
 12 14  1  0  0  0  0
 12 40  1  0  0  0  0
 12 41  1  0  0  0  0
 13 42  1  0  0  0  0
 13 43  1  0  0  0  0
 14 44  1  0  0  0  0
 14 45  1  0  0  0  0
 15 17  2  0  0  0  0
 15 18  1  0  0  0  0
 16 46  1  0  0  0  0
 16 47  1  0  0  0  0
 16 48  1  0  0  0  0
 17 21  1  0  0  0  0
 17 49  1  0  0  0  0
 18 22  2  0  0  0  0
 18 50  1  0  0  0  0
 19 23  1  0  0  0  0
 20 21  2  0  0  0  0
 20 22  1  0  0  0  0
 21 51  1  0  0  0  0
 22 52  1  0  0  0  0
 23 26  1  0  0  0  0
 23 30  2  0  0  0  0
 24 27  1  0  0  0  0
 24 32  1  0  0  0  0
 24 33  1  0  0  0  0
 25 31  2  0  0  0  0
 27 34  1  0  0  0  0
 28 36  1  0  0  0  0
 28 53  1  0  0  0  0
 28 54  1  0  0  0  0
 30 56  1  0  0  0  0
 31 35  1  0  0  0  0
 31 57  1  0  0  0  0
 32 58  1  0  0  0  0
 32 59  1  0  0  0  0
 32 60  1  0  0  0  0
 33 61  1  0  0  0  0
 33 62  1  0  0  0  0
 33 63  1  0  0  0  0
 34 35  2  0  0  0  0
 34 64  1  0  0  0  0
 35 65  1  0  0  0  0
 36 37  2  0  0  0  0
 36 66  1  0  0  0  0
 37 68  1  0  0  0  0
 37 69  1  0  0  0  0
M  END
> <PUBCHEM_COMPOUND_CID>
24856436

> <PUBCHEM_CONFORMER_RMSD>
1

> <PUBCHEM_CONFORMER_DIVERSEORDER>
1
11
26
32
34
31
22
12
41
25
28
33
40
35
36
19
8
27
21
29
13
30
4
15
9
3
5
37
39
6
23
2
17
14
20
38
18
16
24
7
10

> <PUBCHEM_MMFF94_PARTIAL_CHARGES>
48
1 -0.68
10 -0.62
11 0.37
12 0.37
13 0.27
14 0.27
15 0.1
16 0.27
17 -0.15
18 -0.15
19 0.41
2 -0.57
20 0.1
21 -0.15
22 -0.15
23 0.09
24 0.42
25 0.41
26 0.54
27 0.17
28 0.44
29 0.72
3 -0.84
30 0.16
31 -0.15
34 -0.15
35 -0.15
36 -0.29
37 -0.3
4 -0.81
49 0.15
5 -0.22
50 0.15
51 0.15
52 0.15
55 0.4
56 0.15
57 0.15
6 -0.34
64 0.15
65 0.15
66 0.15
67 0.4
68 0.15
69 0.15
7 -0.6
8 -0.62
9 -0.62

> <PUBCHEM_EFFECTIVE_ROTOR_COUNT>
8.2

> <PUBCHEM_PHARMACOPHORE_FEATURES>
15
1 1 acceptor
1 1 donor
1 2 acceptor
1 3 cation
1 37 hydrophobe
1 4 cation
1 7 donor
1 9 acceptor
3 24 32 33 hydrophobe
4 7 8 10 29 cation
5 5 6 19 23 26 rings
6 15 17 18 20 21 22 rings
6 3 4 11 12 13 14 rings
6 8 10 19 23 29 30 rings
6 9 25 27 31 34 35 rings

> <PUBCHEM_HEAVY_ATOM_COUNT>
37

> <PUBCHEM_ATOM_DEF_STEREO_COUNT>
0

> <PUBCHEM_ATOM_UDEF_STEREO_COUNT>
0

> <PUBCHEM_BOND_DEF_STEREO_COUNT>
0

> <PUBCHEM_BOND_UDEF_STEREO_COUNT>
0

> <PUBCHEM_ISOTOPIC_ATOM_COUNT>
0

> <PUBCHEM_COMPONENT_COUNT>
1

> <PUBCHEM_CACTVS_TAUTO_COUNT>
5

> <PUBCHEM_CONFORMER_ID>
017B477400000001

> <PUBCHEM_MMFF94_ENERGY>
141.4627

> <PUBCHEM_FEATURE_SELFOVERLAP>
76.229

> <PUBCHEM_SHAPE_FINGERPRINT>
10074138 170 15306441172200253507
10439779 11 18129084787978255962
10483366 6 18337973263484187244
10675989 125 18410580595154144760
10677394 325 18046942375276317684
10816530 90 18335146410245961204
10974685 15 17264963378224200936
11059048 146 18051699037996625109
11273773 38 18411143549439183964
11297750 10 17767963135363910814
11578080 2 16082230661109664488
11828042 279 18263624304573211039
1200032 147 18115033033570388880
12925494 130 18342734118599244411
13560911 43 18262802835805451961
13944108 23 18338527360523717029
14117953 113 18270966738925627374
14725015 67 18051126991503755962
14790565 3 17978513358319786468
15064981 194 18201170914444286247
15320295 198 18190463749954108477
15439362 3 18266182910558491476
15483637 11 17620196430084494809
16067689 134 18119533387163177580
16087824 20 18340208471132182572
19053607 189 18267860760749554649
19302320 297 18408324371734615225
20642791 178 18339639070027392346
21298829 104 18201431485028937251
21987440 362 17911511318973713120
24771293 8 18129361826892325938
3103668 31 17832713366158431606
338550 245 18413387639923586361
42626532 9 15503748881532431052
4408954 64 17245245441546156546
45266715 3 11959723851191460861
46194498 28 18259987059050830141
513532 50 17703517601304090894
53794403 172 18410017650028051199
550186 83 18116131321691376130
57676310 115 18188507873086866260
57724786 102 18261109733447315325
58902169 19 17916291763760889759
60111433 81 17416946482556281032
6176135 31 18411415107842927153
6371009 1 18125697209907371711

> <PUBCHEM_SHAPE_MULTIPOLES>
709.86
18.53
6.54
1.73
43.04
3.61
-0.76
10.02
-5.33
-7.62
3.97
-3.4
0.98
-3.15

> <PUBCHEM_SHAPE_SELFOVERLAP>
1532.472

> <PUBCHEM_SHAPE_VOLUME>
387.5

> <PUBCHEM_COORDINATE_TYPE>
2
5
10

$$$$
