11992146
  -OEChem-10052120443D

 37 40  0     0  0  0  0  0  0999 V2000
    3.5124    0.6180   -2.0942 F   0  0  0  0  0  0  0  0  0  0  0  0
   -4.0828    2.8871   -0.3642 O   0  0  0  0  0  0  0  0  0  0  0  0
   -2.5023   -1.3395    0.3831 N   0  0  0  0  0  0  0  0  0  0  0  0
   -5.6583    1.2400    0.0190 N   0  0  0  0  0  0  0  0  0  0  0  0
    2.5043   -2.0445   -0.2719 N   0  0  0  0  0  0  0  0  0  0  0  0
   -3.6457   -0.5938    0.3697 C   0  0  0  0  0  0  0  0  0  0  0  0
   -4.9964   -1.0575    0.7651 C   0  0  0  0  0  0  0  0  0  0  0  0
   -3.3371    0.6816   -0.0532 C   0  0  0  0  0  0  0  0  0  0  0  0
   -6.0241   -0.1806    0.0400 C   0  0  0  0  0  0  0  0  0  0  0  0
   -1.4534   -0.5507   -0.0220 C   0  0  0  0  0  0  0  0  0  0  0  0
   -1.9423    0.7116   -0.2939 C   0  0  0  0  0  0  0  0  0  0  0  0
   -4.3563    1.7085   -0.1578 C   0  0  0  0  0  0  0  0  0  0  0  0
   -0.1053   -1.0589   -0.1071 C   0  0  0  0  0  0  0  0  0  0  0  0
    0.9749   -0.2103    0.1046 C   0  0  0  0  0  0  0  0  0  0  0  0
    0.1164   -2.3993   -0.4010 C   0  0  0  0  0  0  0  0  0  0  0  0
    2.2487   -0.7476    0.0116 C   0  0  0  0  0  0  0  0  0  0  0  0
    3.4187    0.0724    0.2190 C   0  0  0  0  0  0  0  0  0  0  0  0
    1.4286   -2.8386   -0.4714 C   0  0  0  0  0  0  0  0  0  0  0  0
    4.0165    0.7323   -0.8567 C   0  0  0  0  0  0  0  0  0  0  0  0
    3.9581    0.2047    1.5002 C   0  0  0  0  0  0  0  0  0  0  0  0
    5.1489    1.5207   -0.6521 C   0  0  0  0  0  0  0  0  0  0  0  0
    5.0905    0.9932    1.7048 C   0  0  0  0  0  0  0  0  0  0  0  0
    5.6859    1.6511    0.6286 C   0  0  0  0  0  0  0  0  0  0  0  0
   -5.1560   -2.1126    0.5209 H   0  0  0  0  0  0  0  0  0  0  0  0
   -5.1085   -0.9393    1.8494 H   0  0  0  0  0  0  0  0  0  0  0  0
   -6.1119   -0.4902   -1.0083 H   0  0  0  0  0  0  0  0  0  0  0  0
   -7.0111   -0.2707    0.5043 H   0  0  0  0  0  0  0  0  0  0  0  0
   -2.4436   -2.3080    0.6676 H   0  0  0  0  0  0  0  0  0  0  0  0
   -1.3659    1.5614   -0.6346 H   0  0  0  0  0  0  0  0  0  0  0  0
   -6.4121    1.9182   -0.0324 H   0  0  0  0  0  0  0  0  0  0  0  0
    0.8366    0.8405    0.3432 H   0  0  0  0  0  0  0  0  0  0  0  0
   -0.6890   -3.1020   -0.5872 H   0  0  0  0  0  0  0  0  0  0  0  0
    1.6563   -3.8745   -0.7006 H   0  0  0  0  0  0  0  0  0  0  0  0
    3.5073   -0.3023    2.3503 H   0  0  0  0  0  0  0  0  0  0  0  0
    5.6122    2.0331   -1.4901 H   0  0  0  0  0  0  0  0  0  0  0  0
    5.5088    1.0946    2.7019 H   0  0  0  0  0  0  0  0  0  0  0  0
    6.5676    2.2650    0.7879 H   0  0  0  0  0  0  0  0  0  0  0  0
  1 19  1  0  0  0  0
  2 12  2  0  0  0  0
  3  6  1  0  0  0  0
  3 10  1  0  0  0  0
  3 28  1  0  0  0  0
  4  9  1  0  0  0  0
  4 12  1  0  0  0  0
  4 30  1  0  0  0  0
  5 16  2  0  0  0  0
  5 18  1  0  0  0  0
  6  7  1  0  0  0  0
  6  8  2  0  0  0  0
  7  9  1  0  0  0  0
  7 24  1  0  0  0  0
  7 25  1  0  0  0  0
  8 11  1  0  0  0  0
  8 12  1  0  0  0  0
  9 26  1  0  0  0  0
  9 27  1  0  0  0  0
 10 11  2  0  0  0  0
 10 13  1  0  0  0  0
 11 29  1  0  0  0  0
 13 14  2  0  0  0  0
 13 15  1  0  0  0  0
 14 16  1  0  0  0  0
 14 31  1  0  0  0  0
 15 18  2  0  0  0  0
 15 32  1  0  0  0  0
 16 17  1  0  0  0  0
 17 19  1  0  0  0  0
 17 20  2  0  0  0  0
 18 33  1  0  0  0  0
 19 21  2  0  0  0  0
 20 22  1  0  0  0  0
 20 34  1  0  0  0  0
 21 23  1  0  0  0  0
 21 35  1  0  0  0  0
 22 23  2  0  0  0  0
 22 36  1  0  0  0  0
 23 37  1  0  0  0  0
M  END
> <PUBCHEM_COMPOUND_CID>
11992146

> <PUBCHEM_CONFORMER_RMSD>
0.6

> <PUBCHEM_CONFORMER_DIVERSEORDER>
1
32
16
31
4
19
35
3
15
36
20
2
33
11
23
28
9
21
26
7
10
30
13
18
27
25
22
12
14
5
34
29
8
17
6
24

> <PUBCHEM_MMFF94_PARTIAL_CHARGES>
32
1 -0.19
10 -0.2
11 -0.15
12 0.72
13 0.05
14 -0.15
15 -0.15
16 0.31
18 0.16
19 0.19
2 -0.57
20 -0.15
21 -0.15
22 -0.15
23 -0.15
28 0.27
29 0.15
3 0.03
30 0.37
31 0.15
32 0.15
33 0.15
34 0.15
35 0.15
36 0.15
37 0.15
4 -0.73
5 -0.62
6 -0.33
7 0.18
8 -0.09
9 0.3

> <PUBCHEM_EFFECTIVE_ROTOR_COUNT>
2.6

> <PUBCHEM_PHARMACOPHORE_FEATURES>
9
1 2 acceptor
1 3 cation
1 3 donor
1 4 donor
1 5 acceptor
5 3 6 8 10 11 rings
6 17 19 20 21 22 23 rings
6 4 6 7 8 9 12 rings
6 5 13 14 15 16 18 rings

> <PUBCHEM_HEAVY_ATOM_COUNT>
23

> <PUBCHEM_ATOM_DEF_STEREO_COUNT>
0

> <PUBCHEM_ATOM_UDEF_STEREO_COUNT>
0

> <PUBCHEM_BOND_DEF_STEREO_COUNT>
0

> <PUBCHEM_BOND_UDEF_STEREO_COUNT>
0

> <PUBCHEM_ISOTOPIC_ATOM_COUNT>
0

> <PUBCHEM_COMPONENT_COUNT>
1

> <PUBCHEM_CACTVS_TAUTO_COUNT>
5

> <PUBCHEM_CONFORMER_ID>
00B6FC5200000001

> <PUBCHEM_MMFF94_ENERGY>
55.008

> <PUBCHEM_FEATURE_SELFOVERLAP>
45.768

> <PUBCHEM_SHAPE_FINGERPRINT>
10 15 18261393394277575689
10498660 4 18272374161370494280
10670039 82 18336561430002886252
11128504 68 15339117956963564090
11135609 149 16270533911467362716
11796584 16 10303818678587598344
12107183 9 17464238449035439113
12236239 1 17822008748414605568
12363563 72 8142090896489438306
12390115 104 18272101465523143041
12403259 118 18114177557694529772
12403259 415 18342462534462276054
12422481 6 17822282432326358188
12596602 18 16950562220328796889
12633257 1 16371007438283838624
12730499 353 17917438639591809526
12769317 202 18059846264592402776
12788726 201 17391088297312794474
12969540 114 17346594188034124956
13631057 29 17701806899320488583
13673619 4 14129605629338548450
13685833 64 8646770006097597285
13785724 45 17832416502578429442
13914758 101 15068607289664041023
14341114 328 17386005100379857184
14528608 73 18202843257932582239
15183329 4 15195573402901820084
15188451 53 14924235979650429497
15196674 1 18337955597624159079
15788980 27 12973605547322889283
15961568 22 18113905948205269524
1601671 61 18408605868392312676
17980427 23 18040437728546893935
18222031 100 11530478926464104418
193927 3 11530760371280994442
21033648 29 18200583813309505096
21452121 103 18338793425590305418
21859007 373 16735216103740050575
221357 26 16487262071027086168
22149856 69 18266201503851705163
23559900 14 18052535470035369011
245318 6 17243319376036320476
2838139 119 18201144529858683384
2916195 48 18130782421315814704
314173 85 11602812493578267926
3472631 163 18198341947966242980
34797466 226 17489311901590411469
469060 322 18339942479676572953
495365 180 17275102852066576814
5104073 3 18263649476727686283
59682541 52 16128386943367341580
67856867 119 18337948965862871051
7808743 9 18267303325818399248
960060 61 12967128328629093192
9981440 41 18261114080060260107

> <PUBCHEM_SHAPE_MULTIPOLES>
445.24
14.49
2.43
1.11
4
0.57
0.01
-8.74
2.1
0.37
-0.4
-1.63
-0.22
0.79

> <PUBCHEM_SHAPE_SELFOVERLAP>
1000.694

> <PUBCHEM_SHAPE_VOLUME>
235.4

> <PUBCHEM_COORDINATE_TYPE>
2
5
10

$$$$
