49830770
  -OEChem-10052115183D

 39 42  0     0  0  0  0  0  0999 V2000
    1.2709   -3.0486   -2.2385 Br  0  0  0  0  0  0  0  0  0  0  0  0
    3.3184    1.6912   -0.1048 S   0  0  0  0  0  0  0  0  0  0  0  0
    4.6449    2.1267    0.2904 O   0  0  0  0  0  0  0  0  0  0  0  0
    2.7283    2.1994   -1.3282 O   0  0  0  0  0  0  0  0  0  0  0  0
   -3.6079    1.5635   -2.4414 O   0  0  0  0  0  0  0  0  0  0  0  0
    2.2363    1.9247    1.2147 N   0  0  0  0  0  0  0  0  0  0  0  0
   -2.3609    1.7762   -1.8483 N   0  0  0  0  0  0  0  0  0  0  0  0
   -1.5232    0.0303    1.1479 C   0  0  0  0  0  0  0  0  0  0  0  0
   -1.1515    0.9487    0.1487 C   0  0  0  0  0  0  0  0  0  0  0  0
   -2.8576   -0.4591    0.8727 C   0  0  0  0  0  0  0  0  0  0  0  0
   -3.3378    0.1466   -0.3015 C   0  0  0  0  0  0  0  0  0  0  0  0
   -2.2824    1.0474   -0.7904 C   0  0  0  0  0  0  0  0  0  0  0  0
    0.0717    1.5900    0.1360 C   0  0  0  0  0  0  0  0  0  0  0  0
    0.9559    1.2922    1.1738 C   0  0  0  0  0  0  0  0  0  0  0  0
   -0.6428   -0.2618    2.1752 C   0  0  0  0  0  0  0  0  0  0  0  0
    0.6030    0.3765    2.1826 C   0  0  0  0  0  0  0  0  0  0  0  0
   -3.6542   -1.3642    1.5518 C   0  0  0  0  0  0  0  0  0  0  0  0
   -4.5867   -0.1147   -0.8294 C   0  0  0  0  0  0  0  0  0  0  0  0
   -4.9253   -1.6463    1.0365 C   0  0  0  0  0  0  0  0  0  0  0  0
   -5.3860   -1.0279   -0.1414 C   0  0  0  0  0  0  0  0  0  0  0  0
    3.3718   -0.0740   -0.2240 C   0  0  0  0  0  0  0  0  0  0  0  0
    2.4614   -0.7464   -1.0394 C   0  0  0  0  0  0  0  0  0  0  0  0
    4.3250   -0.7927    0.4977 C   0  0  0  0  0  0  0  0  0  0  0  0
    2.5041   -2.1375   -1.1332 C   0  0  0  0  0  0  0  0  0  0  0  0
    4.3675   -2.1839    0.4041 C   0  0  0  0  0  0  0  0  0  0  0  0
    3.4573   -2.8562   -0.4116 C   0  0  0  0  0  0  0  0  0  0  0  0
    0.3053    2.3099   -0.6386 H   0  0  0  0  0  0  0  0  0  0  0  0
   -0.8980   -0.9656    2.9604 H   0  0  0  0  0  0  0  0  0  0  0  0
    1.3034    0.1525    2.9843 H   0  0  0  0  0  0  0  0  0  0  0  0
   -3.3157   -1.8503    2.4607 H   0  0  0  0  0  0  0  0  0  0  0  0
   -5.0372    0.2982   -1.7176 H   0  0  0  0  0  0  0  0  0  0  0  0
    2.6681    1.9678    2.1471 H   0  0  0  0  0  0  0  0  0  0  0  0
   -5.5682   -2.3542    1.5535 H   0  0  0  0  0  0  0  0  0  0  0  0
   -6.3779   -1.2682   -0.5157 H   0  0  0  0  0  0  0  0  0  0  0  0
    1.7206   -0.1937   -1.6109 H   0  0  0  0  0  0  0  0  0  0  0  0
    5.0385   -0.2905    1.1446 H   0  0  0  0  0  0  0  0  0  0  0  0
    5.1083   -2.7437    0.9675 H   0  0  0  0  0  0  0  0  0  0  0  0
    3.5038   -3.9405   -0.4730 H   0  0  0  0  0  0  0  0  0  0  0  0
   -3.5593    2.1507   -3.2145 H   0  0  0  0  0  0  0  0  0  0  0  0
  1 24  1  0  0  0  0
  2  3  2  0  0  0  0
  2  4  2  0  0  0  0
  2  6  1  0  0  0  0
  2 21  1  0  0  0  0
  5  7  1  0  0  0  0
  5 39  1  0  0  0  0
  6 14  1  0  0  0  0
  6 32  1  0  0  0  0
  7 12  2  3  0  0  0
  8  9  2  0  0  0  0
  8 10  1  0  0  0  0
  8 15  1  0  0  0  0
  9 12  1  0  0  0  0
  9 13  1  0  0  0  0
 10 11  1  0  0  0  0
 10 17  2  0  0  0  0
 11 12  1  0  0  0  0
 11 18  2  0  0  0  0
 13 14  2  0  0  0  0
 13 27  1  0  0  0  0
 14 16  1  0  0  0  0
 15 16  2  0  0  0  0
 15 28  1  0  0  0  0
 16 29  1  0  0  0  0
 17 19  1  0  0  0  0
 17 30  1  0  0  0  0
 18 20  1  0  0  0  0
 18 31  1  0  0  0  0
 19 20  2  0  0  0  0
 19 33  1  0  0  0  0
 20 34  1  0  0  0  0
 21 22  2  0  0  0  0
 21 23  1  0  0  0  0
 22 24  1  0  0  0  0
 22 35  1  0  0  0  0
 23 25  2  0  0  0  0
 23 36  1  0  0  0  0
 24 26  2  0  0  0  0
 25 26  1  0  0  0  0
 25 37  1  0  0  0  0
 26 38  1  0  0  0  0
M  END
> <PUBCHEM_COMPOUND_CID>
49830770

> <PUBCHEM_CONFORMER_RMSD>
0.6

> <PUBCHEM_CONFORMER_DIVERSEORDER>
1
32
60
18
54
56
12
14
59
53
40
45
58
22
16
51
57
9
28
31
42
8
55
6
35
20
41
38
13
37
27
61
3
52
48
5
39
19
10
44
4
21
30
2
46
43
49
25
11
7
33
47
34
15
23
17
26
50
36
24
29

> <PUBCHEM_MMFF94_PARTIAL_CHARGES>
37
1 -0.11
11 0.09
12 0.28
13 -0.15
14 0.2
15 -0.15
16 -0.15
17 -0.15
18 -0.15
19 -0.15
2 1.45
20 -0.15
21 -0.01
22 -0.15
23 -0.15
24 0.11
25 -0.15
26 -0.15
27 0.15
28 0.15
29 0.15
3 -0.65
30 0.15
31 0.15
32 0.42
33 0.15
34 0.15
35 0.15
36 0.15
37 0.15
38 0.15
39 0.4
4 -0.65
5 -0.34
6 -0.76
7 -0.51
9 0.09

> <PUBCHEM_EFFECTIVE_ROTOR_COUNT>
3

> <PUBCHEM_PHARMACOPHORE_FEATURES>
10
1 1 hydrophobe
1 3 acceptor
1 4 acceptor
1 5 anion
1 6 donor
1 7 acceptor
5 8 9 10 11 12 rings
6 10 11 17 18 19 20 rings
6 21 22 23 24 25 26 rings
6 8 9 13 14 15 16 rings

> <PUBCHEM_HEAVY_ATOM_COUNT>
26

> <PUBCHEM_ATOM_DEF_STEREO_COUNT>
0

> <PUBCHEM_ATOM_UDEF_STEREO_COUNT>
0

> <PUBCHEM_BOND_DEF_STEREO_COUNT>
0

> <PUBCHEM_BOND_UDEF_STEREO_COUNT>
1

> <PUBCHEM_ISOTOPIC_ATOM_COUNT>
0

> <PUBCHEM_COMPONENT_COUNT>
1

> <PUBCHEM_CACTVS_TAUTO_COUNT>
18

> <PUBCHEM_CONFORMER_ID>
02F85B7200000001

> <PUBCHEM_MMFF94_ENERGY>
88.2303

> <PUBCHEM_FEATURE_SELFOVERLAP>
50.932

> <PUBCHEM_SHAPE_FINGERPRINT>
10498660 4 17023172856152353493
11828532 37 17168714166918394835
12035759 4 15863790582650248959
12156800 1 13298635069933008686
12553582 1 16774078470619273624
12596602 18 15626218035447375859
12788726 201 16558486234897511345
13224815 77 17060339578691105374
13544653 18 17703226196246758354
13911987 19 18052274065884171624
13947920 75 15502383301139366614
14251757 17 18187642457869894155
14341114 328 15123210131999903890
14659021 117 16755227034935788190
14787075 74 16271342198436917698
14848160 33 18271246019459145854
14863182 85 17632303354734412438
15961568 22 17096372902796004748
17138139 8 16986292048779278310
1813 80 16774080686896349449
20645477 70 18413108359859637410
20775530 9 17557434175867049158
21033650 10 16950565415578937636
21285901 2 18186806923901788615
21315764 371 16343979225880375666
21421861 104 17487928672701786195
21860390 5 17168994550704348324
22393880 68 17677322818982474058
22907989 373 15287368347270729331
235170 7 18334576858331511799
23557571 272 17894625976480653957
23559900 14 18040715870228107564
23598288 3 16556510275089791680
392239 28 16341983544205352002
4340502 62 17630886199962328328
44802255 64 16525026074327091140
46194498 28 18186525435961230404
463206 1 18201997784782977807
484985 159 16020545473116806538
5281201 14 18186803582011381572
7399639 24 18194113238535028632
9709674 26 17968100853696137984

> <PUBCHEM_SHAPE_MULTIPOLES>
517.29
10.33
3
2.04
4.73
1.58
-0.29
3.33
-0.13
-3.72
-1.06
1.38
-0.14
1.3

> <PUBCHEM_SHAPE_SELFOVERLAP>
1128.748

> <PUBCHEM_SHAPE_VOLUME>
289.2

> <PUBCHEM_COORDINATE_TYPE>
2
5
10

$$$$
