49831040
  -OEChem-10052115183D

 15 16  0     0  0  0  0  0  0999 V2000
   -0.4844    2.8043   -0.0016 Cl  0  0  0  0  0  0  0  0  0  0  0  0
    0.2392    0.1702    0.0003 N   0  0  0  0  0  0  0  0  0  0  0  0
    1.0216   -1.8913   -0.0005 N   0  0  0  0  0  0  0  0  0  0  0  0
    2.0880   -1.0067   -0.0005 N   0  0  0  0  0  0  0  0  0  0  0  0
   -2.4071   -0.6999    0.0001 N   0  0  0  0  0  0  0  0  0  0  0  0
    2.2768    1.3898    0.0010 N   0  0  0  0  0  0  0  0  0  0  0  0
   -0.0663   -1.1636   -0.0001 C   0  0  0  0  0  0  0  0  0  0  0  0
    1.6018    0.2189    0.0000 C   0  0  0  0  0  0  0  0  0  0  0  0
   -0.7813    1.1072    0.0008 C   0  0  0  0  0  0  0  0  0  0  0  0
   -1.4377   -1.5745   -0.0002 C   0  0  0  0  0  0  0  0  0  0  0  0
   -2.0506    0.6456    0.0006 C   0  0  0  0  0  0  0  0  0  0  0  0
   -1.6776   -2.6495   -0.0006 H   0  0  0  0  0  0  0  0  0  0  0  0
   -2.8923    1.3316    0.0002 H   0  0  0  0  0  0  0  0  0  0  0  0
    3.2914    1.4158    0.0012 H   0  0  0  0  0  0  0  0  0  0  0  0
    1.8134    2.2928    0.0016 H   0  0  0  0  0  0  0  0  0  0  0  0
  1  9  1  0  0  0  0
  2  7  1  0  0  0  0
  2  8  1  0  0  0  0
  2  9  1  0  0  0  0
  3  4  1  0  0  0  0
  3  7  2  0  0  0  0
  4  8  2  0  0  0  0
  5 10  2  0  0  0  0
  5 11  1  0  0  0  0
  6  8  1  0  0  0  0
  6 14  1  0  0  0  0
  6 15  1  0  0  0  0
  7 10  1  0  0  0  0
  9 11  2  0  0  0  0
 10 12  1  0  0  0  0
 11 13  1  0  0  0  0
M  END
> <PUBCHEM_COMPOUND_CID>
49831040

> <PUBCHEM_CONFORMER_RMSD>
0.4

> <PUBCHEM_CONFORMER_DIVERSEORDER>
1

> <PUBCHEM_MMFF94_PARTIAL_CHARGES>
15
1 -0.14
10 0.47
11 0.02
12 0.06
13 0.15
14 0.4
15 0.4
2 0.33
3 -0.34
4 -0.34
5 -0.62
6 -0.88
7 0.1
8 0.27
9 0.11

> <PUBCHEM_EFFECTIVE_ROTOR_COUNT>
0

> <PUBCHEM_PHARMACOPHORE_FEATURES>
5
1 5 acceptor
1 6 donor
4 2 4 6 8 cation
5 2 3 4 7 8 rings
6 2 5 7 9 10 11 rings

> <PUBCHEM_HEAVY_ATOM_COUNT>
11

> <PUBCHEM_ATOM_DEF_STEREO_COUNT>
0

> <PUBCHEM_ATOM_UDEF_STEREO_COUNT>
0

> <PUBCHEM_BOND_DEF_STEREO_COUNT>
0

> <PUBCHEM_BOND_UDEF_STEREO_COUNT>
0

> <PUBCHEM_ISOTOPIC_ATOM_COUNT>
0

> <PUBCHEM_COMPONENT_COUNT>
1

> <PUBCHEM_CACTVS_TAUTO_COUNT>
3

> <PUBCHEM_CONFORMER_ID>
02F85C8000000001

> <PUBCHEM_MMFF94_ENERGY>
24.7031

> <PUBCHEM_FEATURE_SELFOVERLAP>
25.486

> <PUBCHEM_SHAPE_FINGERPRINT>
12423570 1 17196592403798047902
12524768 44 18341900688051686335
12897270 3 18410856559660901740
16945 1 18266459797845374631
18185500 45 18339080492308200903
193761 8 18194682566471952260
19973954 147 18266741285722655540
21040471 1 17690279309358833926
23552423 10 18334016072925855262
23559900 14 17263004650696341550
241688 4 18410575071904836401
2748010 2 18411419548269048175
5084963 1 17914325784486169579
66348 1 18339642364061450017

> <PUBCHEM_SHAPE_MULTIPOLES>
203.34
2.82
2.54
0.58
0.33
1.21
0
-0.17
0
-0.3
0
-0.03
0.03
0

> <PUBCHEM_SHAPE_SELFOVERLAP>
435.103

> <PUBCHEM_SHAPE_VOLUME>
114.3

> <PUBCHEM_COORDINATE_TYPE>
2
5
10

$$$$
