49830565
  -OEChem-10052115193D

 43 46  0     0  0  0  0  0  0999 V2000
   -0.9398    3.1914   -0.6562 S   0  0  0  0  0  0  0  0  0  0  0  0
    1.7514    2.9608    0.4651 O   0  0  0  0  0  0  0  0  0  0  0  0
    5.0068   -2.9424   -0.5175 O   0  0  0  0  0  0  0  0  0  0  0  0
   -4.2680    1.4716   -1.1062 N   0  0  0  0  0  0  0  0  0  0  0  0
   -3.4763    2.5750   -1.3136 N   0  0  0  0  0  0  0  0  0  0  0  0
    1.6478    0.8281    1.3693 N   0  0  0  0  0  0  0  0  0  0  0  0
   -2.3960    0.9399   -0.1742 C   0  0  0  0  0  0  0  0  0  0  0  0
   -3.6338    0.4448   -0.4068 C   0  0  0  0  0  0  0  0  0  0  0  0
   -2.3711    2.2020   -0.7366 C   0  0  0  0  0  0  0  0  0  0  0  0
   -1.1306    0.6963    0.4032 C   0  0  0  0  0  0  0  0  0  0  0  0
   -0.2689    1.7954    0.2235 C   0  0  0  0  0  0  0  0  0  0  0  0
   -4.2737   -0.8054   -0.0783 C   0  0  0  0  0  0  0  0  0  0  0  0
    2.9913    0.8060    1.9014 C   0  0  0  0  0  0  0  0  0  0  0  0
    1.0860    1.9158    0.6693 C   0  0  0  0  0  0  0  0  0  0  0  0
    3.9799    0.2661    0.9088 C   0  0  0  0  0  0  0  0  0  0  0  0
   -3.5144   -1.9706    0.0285 C   0  0  0  0  0  0  0  0  0  0  0  0
   -5.6517   -0.8492    0.1328 C   0  0  0  0  0  0  0  0  0  0  0  0
    4.0355   -1.1042    0.6542 C   0  0  0  0  0  0  0  0  0  0  0  0
    4.8424    1.1352    0.2405 C   0  0  0  0  0  0  0  0  0  0  0  0
   -4.1332   -3.1798    0.3462 C   0  0  0  0  0  0  0  0  0  0  0  0
   -6.2705   -2.0582    0.4506 C   0  0  0  0  0  0  0  0  0  0  0  0
    4.9534   -1.6055   -0.2686 C   0  0  0  0  0  0  0  0  0  0  0  0
   -5.5112   -3.2235    0.5572 C   0  0  0  0  0  0  0  0  0  0  0  0
    5.7604    0.6339   -0.6823 C   0  0  0  0  0  0  0  0  0  0  0  0
    5.8159   -0.7366   -0.9369 C   0  0  0  0  0  0  0  0  0  0  0  0
    5.9685   -3.3868   -1.4734 C   0  0  0  0  0  0  0  0  0  0  0  0
   -0.8616   -0.2159    0.9186 H   0  0  0  0  0  0  0  0  0  0  0  0
   -5.2122    1.4877   -1.4714 H   0  0  0  0  0  0  0  0  0  0  0  0
    3.2675    1.8182    2.2182 H   0  0  0  0  0  0  0  0  0  0  0  0
    2.9831    0.1799    2.8010 H   0  0  0  0  0  0  0  0  0  0  0  0
    1.0968   -0.0107    1.5146 H   0  0  0  0  0  0  0  0  0  0  0  0
   -2.4411   -1.9690   -0.1416 H   0  0  0  0  0  0  0  0  0  0  0  0
   -6.2687    0.0434    0.0670 H   0  0  0  0  0  0  0  0  0  0  0  0
    3.3653   -1.7862    1.1719 H   0  0  0  0  0  0  0  0  0  0  0  0
    4.8091    2.2051    0.4278 H   0  0  0  0  0  0  0  0  0  0  0  0
   -3.5426   -4.0877    0.4269 H   0  0  0  0  0  0  0  0  0  0  0  0
   -7.3432   -2.0923    0.6172 H   0  0  0  0  0  0  0  0  0  0  0  0
    6.4312    1.3115   -1.2025 H   0  0  0  0  0  0  0  0  0  0  0  0
   -5.9931   -4.1649    0.8045 H   0  0  0  0  0  0  0  0  0  0  0  0
    6.5523   -1.0579   -1.6654 H   0  0  0  0  0  0  0  0  0  0  0  0
    5.8722   -4.4751   -1.5467 H   0  0  0  0  0  0  0  0  0  0  0  0
    6.9914   -3.1781   -1.1420 H   0  0  0  0  0  0  0  0  0  0  0  0
    5.7635   -2.9800   -2.4694 H   0  0  0  0  0  0  0  0  0  0  0  0
  1  9  1  0  0  0  0
  1 11  1  0  0  0  0
  2 14  2  0  0  0  0
  3 22  1  0  0  0  0
  3 26  1  0  0  0  0
  4  5  1  0  0  0  0
  4  8  1  0  0  0  0
  4 28  1  0  0  0  0
  5  9  2  0  0  0  0
  6 13  1  0  0  0  0
  6 14  1  0  0  0  0
  6 31  1  0  0  0  0
  7  8  2  0  0  0  0
  7  9  1  0  0  0  0
  7 10  1  0  0  0  0
  8 12  1  0  0  0  0
 10 11  2  0  0  0  0
 10 27  1  0  0  0  0
 11 14  1  0  0  0  0
 12 16  2  0  0  0  0
 12 17  1  0  0  0  0
 13 15  1  0  0  0  0
 13 29  1  0  0  0  0
 13 30  1  0  0  0  0
 15 18  2  0  0  0  0
 15 19  1  0  0  0  0
 16 20  1  0  0  0  0
 16 32  1  0  0  0  0
 17 21  2  0  0  0  0
 17 33  1  0  0  0  0
 18 22  1  0  0  0  0
 18 34  1  0  0  0  0
 19 24  2  0  0  0  0
 19 35  1  0  0  0  0
 20 23  2  0  0  0  0
 20 36  1  0  0  0  0
 21 23  1  0  0  0  0
 21 37  1  0  0  0  0
 22 25  2  0  0  0  0
 23 39  1  0  0  0  0
 24 25  1  0  0  0  0
 24 38  1  0  0  0  0
 25 40  1  0  0  0  0
 26 41  1  0  0  0  0
 26 42  1  0  0  0  0
 26 43  1  0  0  0  0
M  END
> <PUBCHEM_COMPOUND_CID>
49830565

> <PUBCHEM_CONFORMER_RMSD>
0.8

> <PUBCHEM_CONFORMER_DIVERSEORDER>
1
83
5
60
24
69
96
86
33
32
63
73
35
25
87
40
18
66
110
111
27
14
108
103
91
62
10
39
99
85
48
109
7
57
31
36
104
92
45
41
67
58
79
8
101
42
44
112
2
51
107
15
43
76
64
38
97
105
88
21
102
34
49
68
3
54
71
82
89
26
13
70
50
61
93
17
78
29
30
84
20
47
37
9
106
19
22
94
100
98
55
46
56
11
16
23
81
4
74
95
90
28
59
52
80
75
12
6
65
72
77
53

> <PUBCHEM_MMFF94_PARTIAL_CHARGES>
38
1 -0.11
10 -0.15
11 -0.05
12 0.05
13 0.44
14 0.71
15 -0.14
16 -0.15
17 -0.15
18 -0.15
19 -0.15
2 -0.57
20 -0.15
21 -0.15
22 0.08
23 -0.15
24 -0.15
25 -0.15
26 0.28
27 0.15
28 0.27
3 -0.36
31 0.37
32 0.15
33 0.15
34 0.15
35 0.15
36 0.15
37 0.15
38 0.15
39 0.15
4 0.3
40 0.15
5 -0.73
6 -0.73
7 -0.01
8 -0.2
9 0.39

> <PUBCHEM_EFFECTIVE_ROTOR_COUNT>
6

> <PUBCHEM_PHARMACOPHORE_FEATURES>
9
1 2 acceptor
1 3 acceptor
1 4 donor
1 5 acceptor
1 6 donor
5 1 7 9 10 11 rings
5 4 5 7 8 9 rings
6 12 16 17 20 21 23 rings
6 15 18 19 22 24 25 rings

> <PUBCHEM_HEAVY_ATOM_COUNT>
26

> <PUBCHEM_ATOM_DEF_STEREO_COUNT>
0

> <PUBCHEM_ATOM_UDEF_STEREO_COUNT>
0

> <PUBCHEM_BOND_DEF_STEREO_COUNT>
0

> <PUBCHEM_BOND_UDEF_STEREO_COUNT>
0

> <PUBCHEM_ISOTOPIC_ATOM_COUNT>
0

> <PUBCHEM_COMPONENT_COUNT>
1

> <PUBCHEM_CACTVS_TAUTO_COUNT>
7

> <PUBCHEM_CONFORMER_ID>
02F85AA500000001

> <PUBCHEM_MMFF94_ENERGY>
98.1659

> <PUBCHEM_FEATURE_SELFOVERLAP>
45.939

> <PUBCHEM_SHAPE_FINGERPRINT>
11056379 131 18261107435898748837
117089 54 18129109931144932158
11796584 16 18264762165314982840
12107183 9 18340780303869588329
12422481 6 17988925625955213047
12633257 1 15697994163082423980
13383661 66 18266470973461764283
13402501 40 18341615940226032627
1361 4 18411985724508300094
1361 87 18198908011522865526
13690498 29 18186236243007572445
13911987 19 13912612632075915305
13955234 65 17773586308189511320
14251764 30 18413393133165561472
14347332 77 18260545662655505981
14420673 8 18341336600380454363
14556957 393 14924210617446754927
14790565 3 17616809938677077977
14950920 106 16486412226011899651
15230672 131 18046343024710625347
15352257 5 18341897398017352586
15510800 12 18271233942206405194
15537594 2 17775560970842389684
15799311 1 18269856270878347176
17909252 39 18339364183757523360
18608769 82 18339640152712598266
20621476 21 18412829096422150215
21307412 95 18268142063889948693
21315759 148 18201151139465511280
21682296 61 18272933821658632535
21968339 14 13335002933572370384
22849339 104 18188196599404872765
22950370 63 18411985753971710472
23379529 103 18410574006626313697
23424784 1240 18413388748278577234
23559900 14 18336817684915835877
2748736 6 9295296014740245915
3089732 80 18412826905989043634
335352 9 18261102020698739279
437795 70 18261679267501920331
4394409 98 16385908771235387790
439807 62 18409451362648014454
44062 13 18336540521616369789
4435113 14 18270976677591408550
444735 86 18335406985316411930
44880168 125 18059850679924882023
46194498 28 18261390113424156412
484989 97 18341902857839021614
54583773 228 18409739440239803366
56633871 153 18197497544616799719
6823239 73 18339631309042393176
6898599 12 17823126840103332941
7237137 82 17676194780646232853
7918774 8 18413112770411281179
8217 86 18334859454178849944
8863177 126 18271523190783537570
9980921 52 17559369527112517343

> <PUBCHEM_SHAPE_MULTIPOLES>
512.24
17.25
4.35
1.21
5.84
1.51
-0.12
16.41
2.6
-1.43
1
1.07
-0.14
3.51

> <PUBCHEM_SHAPE_SELFOVERLAP>
1118.069

> <PUBCHEM_SHAPE_VOLUME>
281.1

> <PUBCHEM_COORDINATE_TYPE>
2
5
10

$$$$
