718180
  -OEChem-10052115163D

 28 30  0     0  0  0  0  0  0999 V2000
    1.9381    1.8703    0.1312 S   0  0  0  0  0  0  0  0  0  0  0  0
   -5.2369   -0.3425   -0.7455 S   0  0  0  0  0  0  0  0  0  0  0  0
   -1.3853   -1.1382   -1.1586 O   0  0  0  0  0  0  0  0  0  0  0  0
   -0.3961    0.9185   -0.5697 N   0  0  0  0  0  0  0  0  0  0  0  0
    1.4617   -0.6046   -0.4169 N   0  0  0  0  0  0  0  0  0  0  0  0
   -2.7643    0.8129   -1.1524 C   0  0  0  0  0  0  0  0  0  0  0  0
    3.2575    0.7654    0.2369 C   0  0  0  0  0  0  0  0  0  0  0  0
    2.8079   -0.5165   -0.0936 C   0  0  0  0  0  0  0  0  0  0  0  0
    0.9106    0.5837   -0.3319 C   0  0  0  0  0  0  0  0  0  0  0  0
   -3.7698    0.2910   -0.1639 C   0  0  0  0  0  0  0  0  0  0  0  0
   -1.4518    0.0721   -0.9595 C   0  0  0  0  0  0  0  0  0  0  0  0
    4.5943    1.0151    0.5869 C   0  0  0  0  0  0  0  0  0  0  0  0
    3.7308   -1.5847   -0.0721 C   0  0  0  0  0  0  0  0  0  0  0  0
   -3.6617    0.2553    1.1941 C   0  0  0  0  0  0  0  0  0  0  0  0
    5.4870   -0.0595    0.6003 C   0  0  0  0  0  0  0  0  0  0  0  0
    5.0631   -1.3433    0.2755 C   0  0  0  0  0  0  0  0  0  0  0  0
   -4.8244   -0.3132    1.7900 C   0  0  0  0  0  0  0  0  0  0  0  0
   -5.7606   -0.6817    0.8491 C   0  0  0  0  0  0  0  0  0  0  0  0
   -3.0779    0.6648   -2.1922 H   0  0  0  0  0  0  0  0  0  0  0  0
   -2.6387    1.8912   -1.0044 H   0  0  0  0  0  0  0  0  0  0  0  0
   -0.6023    1.9058   -0.4411 H   0  0  0  0  0  0  0  0  0  0  0  0
    4.9324    2.0148    0.8417 H   0  0  0  0  0  0  0  0  0  0  0  0
    3.4103   -2.5917   -0.3240 H   0  0  0  0  0  0  0  0  0  0  0  0
   -2.8047    0.6145    1.7493 H   0  0  0  0  0  0  0  0  0  0  0  0
    6.5262    0.1121    0.8685 H   0  0  0  0  0  0  0  0  0  0  0  0
    5.7717   -2.1668    0.2914 H   0  0  0  0  0  0  0  0  0  0  0  0
   -4.9671   -0.4447    2.8547 H   0  0  0  0  0  0  0  0  0  0  0  0
   -6.7270   -1.1338    1.0219 H   0  0  0  0  0  0  0  0  0  0  0  0
  1  7  1  0  0  0  0
  1  9  1  0  0  0  0
  2 10  1  0  0  0  0
  2 18  1  0  0  0  0
  3 11  2  0  0  0  0
  4  9  1  0  0  0  0
  4 11  1  0  0  0  0
  4 21  1  0  0  0  0
  5  8  1  0  0  0  0
  5  9  2  0  0  0  0
  6 10  1  0  0  0  0
  6 11  1  0  0  0  0
  6 19  1  0  0  0  0
  6 20  1  0  0  0  0
  7  8  1  0  0  0  0
  7 12  2  0  0  0  0
  8 13  2  0  0  0  0
 10 14  2  0  0  0  0
 12 15  1  0  0  0  0
 12 22  1  0  0  0  0
 13 16  1  0  0  0  0
 13 23  1  0  0  0  0
 14 17  1  0  0  0  0
 14 24  1  0  0  0  0
 15 16  2  0  0  0  0
 15 25  1  0  0  0  0
 16 26  1  0  0  0  0
 17 18  2  0  0  0  0
 17 27  1  0  0  0  0
 18 28  1  0  0  0  0
M  END
> <PUBCHEM_COMPOUND_CID>
718180

> <PUBCHEM_CONFORMER_RMSD>
0.6

> <PUBCHEM_CONFORMER_DIVERSEORDER>
2
40
4
29
46
38
12
31
21
48
9
39
5
7
34
35
22
18
27
6
30
26
11
8
32
37
42
1
47
20
16
33
24
13
19
10
25
43
15
23
50
14
3
41
36
17
44
28
45
49

> <PUBCHEM_MMFF94_PARTIAL_CHARGES>
26
1 -0.08
10 -0.14
11 0.57
12 -0.15
13 -0.15
14 -0.15
15 -0.15
16 -0.15
17 -0.15
18 -0.11
2 -0.08
21 0.37
22 0.15
23 0.15
24 0.15
25 0.15
26 0.15
27 0.15
28 0.15
3 -0.57
4 -0.49
5 -0.57
6 0.24
7 0.04
8 0.23
9 0.44

> <PUBCHEM_EFFECTIVE_ROTOR_COUNT>
4

> <PUBCHEM_PHARMACOPHORE_FEATURES>
5
1 3 acceptor
1 4 donor
5 1 5 7 8 9 rings
5 2 10 14 17 18 rings
6 7 8 12 13 15 16 rings

> <PUBCHEM_HEAVY_ATOM_COUNT>
18

> <PUBCHEM_ATOM_DEF_STEREO_COUNT>
0

> <PUBCHEM_ATOM_UDEF_STEREO_COUNT>
0

> <PUBCHEM_BOND_DEF_STEREO_COUNT>
0

> <PUBCHEM_BOND_UDEF_STEREO_COUNT>
0

> <PUBCHEM_ISOTOPIC_ATOM_COUNT>
0

> <PUBCHEM_COMPONENT_COUNT>
1

> <PUBCHEM_CACTVS_TAUTO_COUNT>
3

> <PUBCHEM_CONFORMER_ID>
000AF56400000002

> <PUBCHEM_MMFF94_ENERGY>
30.754

> <PUBCHEM_FEATURE_SELFOVERLAP>
25.443

> <PUBCHEM_SHAPE_FINGERPRINT>
10 15 18041833026230791512
10354089 29 17988927786112460656
10688039 33 18335700520524385732
10912923 1 17418085546505618909
11046707 91 15647054876300008941
11287383 113 17095525106447900100
11315181 36 16732704947925837365
11545043 162 17676204676298426637
11796584 16 16877659054641073811
12107183 9 17197998288423090059
12236239 1 17489586770485317009
12596602 18 17846498144982901795
12916748 109 15769783467872256621
13288520 33 16298385760431666253
13533116 47 13686030765113880156
13675066 3 18334008384955449212
13685833 64 17749114409122325787
13914758 101 18341609279807520181
13955234 65 18410287043705103808
1420 363 17894914022609192651
14251764 18 17775560966552677100
14251764 75 17761774370853078704
14252887 29 18341613673020818534
14341114 176 18411704291721275656
14341114 328 17346887753908211307
14386348 63 17748827414643206139
14455015 7 18187085035513028402
14528608 73 11386371451838204130
14848160 23 17822009817755941363
14849402 71 17630879594598487992
15183329 4 9655587300506968223
15238133 3 16415204485394424352
15880784 105 18335987566610937859
17844677 252 18334296452691518300
17870717 6 16225767415848753003
18222031 100 15864072082784768894
18785283 64 18042688497574443012
193927 3 17023197032491412873
19489759 90 17095235909325524749
20281389 69 14764629694324416067
20374829 77 16298386877202277977
20432913 95 18407762529935503579
20645477 70 18339634547822429782
21033648 29 18265313101986966389
21267235 1 18341050723484141590
212916 134 15051727569114718247
21623969 137 18335139787100597738
21682296 61 18266743484741312126
23035841 295 15647053759761512385
23402539 116 16128648661600004925
23557571 272 17023173877811050540
23559900 14 16588307245739215781
239999 70 17675926504283071824
25147074 1 17915734482235702229
268830 7 16916770925288393184
26918003 58 18260266352384302505
2916195 48 13398626147901088683
29717793 49 13045936877027928762
314173 85 17385445410470377877
4072396 5 10447650146199511428
4325135 7 16370733672952714340
465052 167 18261391123026060570
5104073 3 18337945672028923032
542803 24 16415478263736817068
5718773 13 17605565551567227179
602551 16 16660648487521658666
7495541 125 17167865283543054060
8863177 126 18186807997570403082
960060 61 12179845013133751110

> <PUBCHEM_SHAPE_MULTIPOLES>
362.3
14.47
1.41
1.21
4.06
0.09
-0.21
-3.71
-4.23
-1.49
0.02
1.67
-0.06
0.63

> <PUBCHEM_SHAPE_SELFOVERLAP>
764.139

> <PUBCHEM_SHAPE_VOLUME>
205

> <PUBCHEM_COORDINATE_TYPE>
2
5
10

$$$$
