447961
  -OEChem-10062121573D

 35 37  0     0  0  0  0  0  0999 V2000
    4.0876    0.2238   -0.6416 S   0  0  0  0  0  0  0  0  0  0  0  0
   -3.4972    3.3495   -0.5128 O   0  5  0  0  0  0  0  0  0  0  0  0
   -1.5544    2.6030   -1.2109 O   0  0  0  0  0  0  0  0  0  0  0  0
   -1.5375   -2.2838   -0.1208 N   0  0  0  0  0  0  0  0  0  0  0  0
    0.5251   -1.1701   -0.0083 N   0  0  0  0  0  0  0  0  0  0  0  0
    3.1220    2.1738    0.7538 N   0  0  0  0  0  0  0  0  0  0  0  0
    0.4225   -3.5546   -0.3410 N   0  0  0  0  0  0  0  0  0  0  0  0
   -2.6718    2.4178   -0.6709 N   0  3  0  0  0  0  0  0  0  0  0  0
    5.2254    2.5942   -0.2405 N   0  0  0  0  0  0  0  0  0  0  0  0
    2.5627   -0.0087    0.1114 C   0  0  0  0  0  0  0  0  0  0  0  0
    1.8706   -1.2598   -0.0489 C   0  0  0  0  0  0  0  0  0  0  0  0
    2.2152    1.1332    0.8063 C   0  0  0  0  0  0  0  0  0  0  0  0
   -2.4477   -1.2198    0.0470 C   0  0  0  0  0  0  0  0  0  0  0  0
   -0.1305   -2.3386   -0.1585 C   0  0  0  0  0  0  0  0  0  0  0  0
   -2.1118    0.0614   -0.3907 C   0  0  0  0  0  0  0  0  0  0  0  0
    2.5550   -2.4444   -0.2293 C   0  0  0  0  0  0  0  0  0  0  0  0
   -3.6843   -1.4489    0.6505 C   0  0  0  0  0  0  0  0  0  0  0  0
   -3.0126    1.1134   -0.2247 C   0  0  0  0  0  0  0  0  0  0  0  0
    0.9770    1.3357    1.5881 C   0  0  0  0  0  0  0  0  0  0  0  0
    4.1476    1.8068    0.0181 C   0  0  0  0  0  0  0  0  0  0  0  0
   -4.5848   -0.3970    0.8166 C   0  0  0  0  0  0  0  0  0  0  0  0
   -4.2492    0.8842    0.3788 C   0  0  0  0  0  0  0  0  0  0  0  0
    1.7713   -3.5711   -0.3715 C   0  0  0  0  0  0  0  0  0  0  0  0
   -1.9633   -3.2057   -0.1031 H   0  0  0  0  0  0  0  0  0  0  0  0
   -1.1742    0.2356   -0.9082 H   0  0  0  0  0  0  0  0  0  0  0  0
    3.6334   -2.5352   -0.2447 H   0  0  0  0  0  0  0  0  0  0  0  0
   -3.9576   -2.4424    0.9967 H   0  0  0  0  0  0  0  0  0  0  0  0
    1.0849    2.1866    2.2692 H   0  0  0  0  0  0  0  0  0  0  0  0
    0.1355    1.5494    0.9254 H   0  0  0  0  0  0  0  0  0  0  0  0
    0.7376    0.4604    2.1998 H   0  0  0  0  0  0  0  0  0  0  0  0
   -5.5474   -0.5757    1.2869 H   0  0  0  0  0  0  0  0  0  0  0  0
   -4.9759    1.6793    0.5248 H   0  0  0  0  0  0  0  0  0  0  0  0
    2.2194   -4.5488   -0.5132 H   0  0  0  0  0  0  0  0  0  0  0  0
    5.3006    3.5357    0.1304 H   0  0  0  0  0  0  0  0  0  0  0  0
    5.9977    2.2716   -0.8141 H   0  0  0  0  0  0  0  0  0  0  0  0
  1 10  1  0  0  0  0
  1 20  1  0  0  0  0
  2  8  1  0  0  0  0
  3  8  2  0  0  0  0
  4 13  1  0  0  0  0
  4 14  1  0  0  0  0
  4 24  1  0  0  0  0
  5 11  2  0  0  0  0
  5 14  1  0  0  0  0
  6 12  1  0  0  0  0
  6 20  2  0  0  0  0
  7 14  2  0  0  0  0
  7 23  1  0  0  0  0
  8 18  1  0  0  0  0
  9 20  1  0  0  0  0
  9 34  1  0  0  0  0
  9 35  1  0  0  0  0
 10 11  1  0  0  0  0
 10 12  2  0  0  0  0
 11 16  1  0  0  0  0
 12 19  1  0  0  0  0
 13 15  2  0  0  0  0
 13 17  1  0  0  0  0
 15 18  1  0  0  0  0
 15 25  1  0  0  0  0
 16 23  2  0  0  0  0
 16 26  1  0  0  0  0
 17 21  2  0  0  0  0
 17 27  1  0  0  0  0
 18 22  2  0  0  0  0
 19 28  1  0  0  0  0
 19 29  1  0  0  0  0
 19 30  1  0  0  0  0
 21 22  1  0  0  0  0
 21 31  1  0  0  0  0
 22 32  1  0  0  0  0
 23 33  1  0  0  0  0
M  CHG  2   2  -1   8   1
M  END
> <PUBCHEM_COMPOUND_CID>
447961

> <PUBCHEM_CONFORMER_RMSD>
0.6

> <PUBCHEM_CONFORMER_DIVERSEORDER>
1
69
76
73
55
65
75
60
19
113
50
11
82
35
47
92
115
20
18
89
114
46
13
110
41
39
72
17
58
52
3
57
16
100
88
118
2
32
22
85
64
66
77
53
48
120
31
30
43
102
42
15
87
59
51
5
109
23
45
91
97
94
24
4
29
105
74
34
98
26
54
104
93
106
21
56
67
80
101
14
78
25
12
71
117
84
37
44
112
10
28
63
27
7
96
108
36
83
9
61
6
79
116
107
95
119
68
38
62
40
111
103
99
33
81
8
70
90
86
49

> <PUBCHEM_MMFF94_PARTIAL_CHARGES>
32
1 -0.08
10 -0.01
11 0.36
12 0.05
13 0.1
14 0.72
15 -0.15
16 -0.15
17 -0.15
18 0.13
19 0.18
2 -0.52
20 0.46
21 -0.15
22 -0.15
23 0.16
24 0.4
25 0.15
26 0.15
27 0.15
3 -0.52
31 0.15
32 0.15
33 0.15
34 0.4
35 0.4
4 -0.6
5 -0.62
6 -0.57
7 -0.62
8 0.91
9 -0.88

> <PUBCHEM_EFFECTIVE_ROTOR_COUNT>
4

> <PUBCHEM_PHARMACOPHORE_FEATURES>
11
1 2 acceptor
1 2 anion
1 3 acceptor
1 4 donor
1 5 acceptor
1 9 donor
3 6 9 20 cation
4 4 5 7 14 cation
5 1 6 10 12 20 rings
6 13 15 17 18 21 22 rings
6 5 7 11 14 16 23 rings

> <PUBCHEM_HEAVY_ATOM_COUNT>
23

> <PUBCHEM_ATOM_DEF_STEREO_COUNT>
0

> <PUBCHEM_ATOM_UDEF_STEREO_COUNT>
0

> <PUBCHEM_BOND_DEF_STEREO_COUNT>
0

> <PUBCHEM_BOND_UDEF_STEREO_COUNT>
0

> <PUBCHEM_ISOTOPIC_ATOM_COUNT>
0

> <PUBCHEM_COMPONENT_COUNT>
1

> <PUBCHEM_CACTVS_TAUTO_COUNT>
9

> <PUBCHEM_CONFORMER_ID>
0006D5D900000001

> <PUBCHEM_MMFF94_ENERGY>
69.8659

> <PUBCHEM_FEATURE_SELFOVERLAP>
55.902

> <PUBCHEM_SHAPE_FINGERPRINT>
10165383 225 18271252732360972721
10366900 7 18412539938207577619
10498660 4 18335973268332363495
10608611 8 18265052432000369759
10670039 82 18261403299110684988
10759866 29 18260826021109174224
10871710 139 18124873714458186471
1100329 8 16248285765724647595
12422481 6 18190717788457634010
12596602 18 16661202697301379240
12633257 1 17903352602870147393
13140716 1 17830176066445303129
13402501 40 18340209686349562089
138480 1 17979920415038396390
14114211 80 18127716999671080401
14223421 5 18337111164178010519
14251757 17 18129960996098803932
14466204 15 17975124353960953978
14790565 3 18267032828251187128
151778 21 18341335479003509137
15322687 12 17543906811396270877
15575132 122 18041842934039991669
19591789 44 18412263952151741406
20681677 76 18265329500519840047
21279426 13 18269844129929208102
23536364 44 17912668829633308054
23559900 14 18122339077867628175
238 59 17833516073849405157
350125 39 18410017593724178974
3524813 1 18271806894695118833
469060 322 17976838793278520363
5104073 3 18262528000758549355
5252454 2 18201719587002990171
54672768 99 18047743802413746188
5939293 188 17833823872317169047
6287921 2 18261968387351222932
6442390 28 18338803428489899646
6700243 42 16684055119509915492
7226269 152 17917424376585395976
7808743 9 18122344846620545528
81228 2 17333628974664005026
9709674 26 18266175020540051407

> <PUBCHEM_SHAPE_MULTIPOLES>
435.55
9.14
4.29
0.94
0.18
1.21
0.15
-6.02
0.22
-1.11
-0.84
0.07
-0.43
1.18

> <PUBCHEM_SHAPE_SELFOVERLAP>
939.277

> <PUBCHEM_SHAPE_VOLUME>
241.7

> <PUBCHEM_COORDINATE_TYPE>
2
5
10

$$$$
