16129448
  -OEChem-10052120443D

 47 49  0     0  0  0  0  0  0999 V2000
   -2.4962   -4.2319    0.9867 F   0  0  0  0  0  0  0  0  0  0  0  0
   -0.6956   -4.5350   -0.2042 F   0  0  0  0  0  0  0  0  0  0  0  0
   -2.6071   -4.1955   -1.1959 F   0  0  0  0  0  0  0  0  0  0  0  0
    5.7023    1.7382   -0.2960 O   0  0  0  0  0  0  0  0  0  0  0  0
   -5.3372    2.2823    0.2390 N   0  0  0  0  0  0  0  0  0  0  0  0
   -2.8087   -1.6292   -0.0324 N   0  0  0  0  0  0  0  0  0  0  0  0
   -0.6141    2.5579   -0.0005 N   0  0  0  0  0  0  0  0  0  0  0  0
   -2.9491    2.5945    0.1240 N   0  0  0  0  0  0  0  0  0  0  0  0
   -1.7221    0.4962   -0.0148 N   0  0  0  0  0  0  0  0  0  0  0  0
    5.0185   -0.4697   -0.4815 N   0  0  0  0  0  0  0  0  0  0  0  0
   -4.0918    0.4351    0.1081 C   0  0  0  0  0  0  0  0  0  0  0  0
   -4.0497    1.8231    0.1548 C   0  0  0  0  0  0  0  0  0  0  0  0
   -2.8668   -0.2247    0.0203 C   0  0  0  0  0  0  0  0  0  0  0  0
   -5.4586    0.0607    0.1667 C   0  0  0  0  0  0  0  0  0  0  0  0
   -1.8327    1.8427    0.0386 C   0  0  0  0  0  0  0  0  0  0  0  0
    0.7276    2.1460   -0.0867 C   0  0  0  0  0  0  0  0  0  0  0  0
   -6.2027    1.2185    0.2471 C   0  0  0  0  0  0  0  0  0  0  0  0
   -1.5783   -2.3566   -0.1229 C   0  0  0  0  0  0  0  0  0  0  0  0
    6.3405   -1.0485   -0.5606 C   0  0  0  0  0  0  0  0  0  0  0  0
    3.3937    1.3287   -0.2609 C   0  0  0  0  0  0  0  0  0  0  0  0
    6.8999   -1.4076    0.8107 C   0  0  0  0  0  0  0  0  0  0  0  0
    1.7377    2.9186    0.4916 C   0  0  0  0  0  0  0  0  0  0  0  0
    1.0567    0.9629   -0.7525 C   0  0  0  0  0  0  0  0  0  0  0  0
    3.0688    2.5106    0.4046 C   0  0  0  0  0  0  0  0  0  0  0  0
    2.3877    0.5548   -0.8395 C   0  0  0  0  0  0  0  0  0  0  0  0
    4.7817    0.9039   -0.3527 C   0  0  0  0  0  0  0  0  0  0  0  0
   -1.8531   -3.8406   -0.1338 C   0  0  0  0  0  0  0  0  0  0  0  0
    6.0485   -2.4354    1.5426 C   0  0  0  0  0  0  0  0  0  0  0  0
   -5.8641   -0.9417    0.1526 H   0  0  0  0  0  0  0  0  0  0  0  0
   -5.6072    3.2549    0.2876 H   0  0  0  0  0  0  0  0  0  0  0  0
   -3.6869   -2.1354   -0.0065 H   0  0  0  0  0  0  0  0  0  0  0  0
   -7.2697    1.3795    0.3091 H   0  0  0  0  0  0  0  0  0  0  0  0
   -1.0417   -2.0833   -1.0383 H   0  0  0  0  0  0  0  0  0  0  0  0
   -0.9324   -2.1183    0.7297 H   0  0  0  0  0  0  0  0  0  0  0  0
   -0.7403    3.5495    0.1795 H   0  0  0  0  0  0  0  0  0  0  0  0
    7.0105   -0.3391   -1.0579 H   0  0  0  0  0  0  0  0  0  0  0  0
    6.2668   -1.9410   -1.1909 H   0  0  0  0  0  0  0  0  0  0  0  0
    7.9135   -1.8064    0.6884 H   0  0  0  0  0  0  0  0  0  0  0  0
    6.9799   -0.5064    1.4301 H   0  0  0  0  0  0  0  0  0  0  0  0
    1.4979    3.8411    1.0146 H   0  0  0  0  0  0  0  0  0  0  0  0
    0.3152    0.3579   -1.2637 H   0  0  0  0  0  0  0  0  0  0  0  0
    3.8371    3.1256    0.8661 H   0  0  0  0  0  0  0  0  0  0  0  0
    2.6008   -0.3496   -1.4020 H   0  0  0  0  0  0  0  0  0  0  0  0
    4.2437   -1.1238   -0.4602 H   0  0  0  0  0  0  0  0  0  0  0  0
    5.9374   -3.3477    0.9478 H   0  0  0  0  0  0  0  0  0  0  0  0
    6.5204   -2.7060    2.4926 H   0  0  0  0  0  0  0  0  0  0  0  0
    5.0509   -2.0446    1.7655 H   0  0  0  0  0  0  0  0  0  0  0  0
  1 27  1  0  0  0  0
  2 27  1  0  0  0  0
  3 27  1  0  0  0  0
  4 26  2  0  0  0  0
  5 12  1  0  0  0  0
  5 17  1  0  0  0  0
  5 30  1  0  0  0  0
  6 13  1  0  0  0  0
  6 18  1  0  0  0  0
  6 31  1  0  0  0  0
  7 15  1  0  0  0  0
  7 16  1  0  0  0  0
  7 35  1  0  0  0  0
  8 12  1  0  0  0  0
  8 15  2  0  0  0  0
  9 13  2  0  0  0  0
  9 15  1  0  0  0  0
 10 19  1  0  0  0  0
 10 26  1  0  0  0  0
 10 44  1  0  0  0  0
 11 12  2  0  0  0  0
 11 13  1  0  0  0  0
 11 14  1  0  0  0  0
 14 17  2  0  0  0  0
 14 29  1  0  0  0  0
 16 22  2  0  0  0  0
 16 23  1  0  0  0  0
 17 32  1  0  0  0  0
 18 27  1  0  0  0  0
 18 33  1  0  0  0  0
 18 34  1  0  0  0  0
 19 21  1  0  0  0  0
 19 36  1  0  0  0  0
 19 37  1  0  0  0  0
 20 24  2  0  0  0  0
 20 25  1  0  0  0  0
 20 26  1  0  0  0  0
 21 28  1  0  0  0  0
 21 38  1  0  0  0  0
 21 39  1  0  0  0  0
 22 24  1  0  0  0  0
 22 40  1  0  0  0  0
 23 25  2  0  0  0  0
 23 41  1  0  0  0  0
 24 42  1  0  0  0  0
 25 43  1  0  0  0  0
 28 45  1  0  0  0  0
 28 46  1  0  0  0  0
 28 47  1  0  0  0  0
M  END
> <PUBCHEM_COMPOUND_CID>
16129448

> <PUBCHEM_CONFORMER_RMSD>
1

> <PUBCHEM_CONFORMER_DIVERSEORDER>
1
18
64
60
11
22
54
26
12
63
21
10
57
47
39
49
40
27
17
56
23
2
42
38
41
44
3
52
13
45
8
14
35
4
9
16
61
29
36
43
24
25
55
31
15
28
58
6
34
37
59
51
32
5
53
20
50
62
7
30
33
46
48
19

> <PUBCHEM_MMFF94_PARTIAL_CHARGES>
35
1 -0.34
10 -0.73
12 0.11
13 0.41
14 -0.15
15 0.72
16 0.1
17 -0.3
18 0.37
19 0.3
2 -0.34
20 0.09
22 -0.15
23 -0.15
24 -0.15
25 -0.15
26 0.54
27 1.02
29 0.15
3 -0.34
30 0.27
31 0.4
32 0.15
35 0.4
4 -0.57
40 0.15
41 0.15
42 0.15
43 0.15
44 0.37
5 0.03
6 -0.87
7 -0.6
8 -0.57
9 -0.62

> <PUBCHEM_EFFECTIVE_ROTOR_COUNT>
9

> <PUBCHEM_PHARMACOPHORE_FEATURES>
11
1 10 donor
1 28 hydrophobe
1 4 acceptor
1 5 cation
1 5 donor
1 6 donor
1 7 donor
4 7 8 9 15 cation
5 5 11 12 14 17 rings
6 16 20 22 23 24 25 rings
6 8 9 11 12 13 15 rings

> <PUBCHEM_HEAVY_ATOM_COUNT>
28

> <PUBCHEM_ATOM_DEF_STEREO_COUNT>
0

> <PUBCHEM_ATOM_UDEF_STEREO_COUNT>
0

> <PUBCHEM_BOND_DEF_STEREO_COUNT>
0

> <PUBCHEM_BOND_UDEF_STEREO_COUNT>
0

> <PUBCHEM_ISOTOPIC_ATOM_COUNT>
0

> <PUBCHEM_COMPONENT_COUNT>
1

> <PUBCHEM_CACTVS_TAUTO_COUNT>
43

> <PUBCHEM_CONFORMER_ID>
00F61DA800000001

> <PUBCHEM_MMFF94_ENERGY>
64.7474

> <PUBCHEM_FEATURE_SELFOVERLAP>
55.938

> <PUBCHEM_SHAPE_FINGERPRINT>
10254770 206 18264191536139943530
10940486 97 18190470543521778085
11135609 99 18408604731053887990
11524674 6 17917990555462634831
11796584 16 18341623633313741852
12107183 9 18336542734052190922
13402501 40 18342463603624303052
138480 1 17690566282537352727
14028597 1 17631187294813845369
14844126 61 18194123138671620227
14866123 147 18340207487970248359
15001296 14 18259981587763447202
15042514 8 18121224444619800139
15183329 4 18411424968903209344
15250474 111 18336259141809629566
15320294 125 18114733821149249330
15439362 3 17326606999905273781
15927050 60 18412827980416897519
16719943 64 18410295783066868831
16728300 4 17608074387233799986
17492 89 18122064479244146314
19319366 153 17676768652649241106
19958102 18 18335692849817771013
21065198 57 18268431419773535297
21133410 171 17190605512073935022
21133410 52 15320533286193877188
21304304 249 18411982429740421900
21703447 108 17767675427739826512
21781051 124 17970653942067306987
23522609 53 18121252863802590004
23559900 14 18270678782975928248
3004659 81 18335709300238885556
335352 9 18411703179388394269
3383291 50 18341332214839335947
373842 8 18192149292109708186
4073 2 18266458896630704232
44062 13 18339929315358846378
463206 1 18407760339839883962
5085150 59 18267011765561983050
5104073 3 18130793394546267448
513202 73 18044669821986037603
5309563 4 16898776584223494255
532947 4 18269564836458228031
5385378 56 18195540190860614673
559249 180 18334857165130488881
59755656 520 18408601470519414111
6138700 20 18410014295653499797
6371380 46 18341608179288700649
9709674 26 18126849528405854749

> <PUBCHEM_SHAPE_MULTIPOLES>
518.65
15.87
5.16
0.87
14.69
7.17
-0.09
1.06
-2.55
-2.61
-0.21
0.82
0.41
-1.44

> <PUBCHEM_SHAPE_SELFOVERLAP>
1113.897

> <PUBCHEM_SHAPE_VOLUME>
286.6

> <PUBCHEM_COORDINATE_TYPE>
2
5
10

$$$$
