49830671
  -OEChem-10052120433D

 42 45  0     0  0  0  0  0  0999 V2000
   -3.8932   -3.5288   -0.1393 Br  0  0  0  0  0  0  0  0  0  0  0  0
    6.4376    3.1249   -1.3237 Cl  0  0  0  0  0  0  0  0  0  0  0  0
   -6.0292   -1.2327    0.2386 S   0  0  0  0  0  0  0  0  0  0  0  0
    2.8168   -1.4344    1.3990 O   0  0  0  0  0  0  0  0  0  0  0  0
    1.9844   -1.2681   -0.7953 N   0  0  0  0  0  0  0  0  0  0  0  0
   -6.5550    1.3727    0.4218 N   0  0  0  0  0  0  0  0  0  0  0  0
   -4.7335    2.9646    0.2579 N   0  0  0  0  0  0  0  0  0  0  0  0
   -2.4772    2.3105   -0.0613 N   0  0  0  0  0  0  0  0  0  0  0  0
   -3.5561   -0.6045   -0.0519 C   0  0  0  0  0  0  0  0  0  0  0  0
   -2.1342   -0.7741   -0.2425 C   0  0  0  0  0  0  0  0  0  0  0  0
   -4.2539    0.6358    0.0930 C   0  0  0  0  0  0  0  0  0  0  0  0
    0.6115   -1.1026   -0.6107 C   0  0  0  0  0  0  0  0  0  0  0  0
   -1.2934   -0.9090    0.8624 C   0  0  0  0  0  0  0  0  0  0  0  0
   -1.6020   -0.8036   -1.5315 C   0  0  0  0  0  0  0  0  0  0  0  0
   -5.6159    0.4205    0.2588 C   0  0  0  0  0  0  0  0  0  0  0  0
   -4.3981   -1.6936    0.0078 C   0  0  0  0  0  0  0  0  0  0  0  0
    0.0793   -1.0733    0.6783 C   0  0  0  0  0  0  0  0  0  0  0  0
   -0.2291   -0.9678   -1.7156 C   0  0  0  0  0  0  0  0  0  0  0  0
   -3.8343    1.9701    0.0983 C   0  0  0  0  0  0  0  0  0  0  0  0
    4.3536   -1.5729   -0.4530 C   0  0  0  0  0  0  0  0  0  0  0  0
    5.3263   -0.4982   -0.0432 C   0  0  0  0  0  0  0  0  0  0  0  0
    2.9809   -1.4207    0.1832 C   0  0  0  0  0  0  0  0  0  0  0  0
    5.4197    0.6786   -0.7863 C   0  0  0  0  0  0  0  0  0  0  0  0
    6.1341   -0.6804    1.0794 C   0  0  0  0  0  0  0  0  0  0  0  0
   -6.0243    2.6086    0.4083 C   0  0  0  0  0  0  0  0  0  0  0  0
    6.3209    1.6731   -0.4068 C   0  0  0  0  0  0  0  0  0  0  0  0
    7.0353    0.3142    1.4587 C   0  0  0  0  0  0  0  0  0  0  0  0
    7.1289    1.4910    0.7155 C   0  0  0  0  0  0  0  0  0  0  0  0
   -1.6935   -0.8872    1.8735 H   0  0  0  0  0  0  0  0  0  0  0  0
   -2.2434   -0.6992   -2.4034 H   0  0  0  0  0  0  0  0  0  0  0  0
    0.6643   -1.1706    1.5820 H   0  0  0  0  0  0  0  0  0  0  0  0
    0.1716   -0.9888   -2.7259 H   0  0  0  0  0  0  0  0  0  0  0  0
    4.2916   -1.6060   -1.5473 H   0  0  0  0  0  0  0  0  0  0  0  0
    4.7388   -2.5580   -0.1591 H   0  0  0  0  0  0  0  0  0  0  0  0
    2.2836   -1.2752   -1.7678 H   0  0  0  0  0  0  0  0  0  0  0  0
    4.7873    0.8187   -1.6601 H   0  0  0  0  0  0  0  0  0  0  0  0
    6.0696   -1.5920    1.6675 H   0  0  0  0  0  0  0  0  0  0  0  0
   -6.7263    3.4254    0.5348 H   0  0  0  0  0  0  0  0  0  0  0  0
   -1.7525    1.6232   -0.1851 H   0  0  0  0  0  0  0  0  0  0  0  0
   -2.2285    3.2911   -0.0499 H   0  0  0  0  0  0  0  0  0  0  0  0
    7.6641    0.1726    2.3329 H   0  0  0  0  0  0  0  0  0  0  0  0
    7.8358    2.2574    1.0230 H   0  0  0  0  0  0  0  0  0  0  0  0
  1 16  1  0  0  0  0
  2 26  1  0  0  0  0
  3 15  1  0  0  0  0
  3 16  1  0  0  0  0
  4 22  2  0  0  0  0
  5 12  1  0  0  0  0
  5 22  1  0  0  0  0
  5 35  1  0  0  0  0
  6 15  2  0  0  0  0
  6 25  1  0  0  0  0
  7 19  1  0  0  0  0
  7 25  2  0  0  0  0
  8 19  1  0  0  0  0
  8 39  1  0  0  0  0
  8 40  1  0  0  0  0
  9 10  1  0  0  0  0
  9 11  1  0  0  0  0
  9 16  2  0  0  0  0
 10 13  2  0  0  0  0
 10 14  1  0  0  0  0
 11 15  1  0  0  0  0
 11 19  2  0  0  0  0
 12 17  2  0  0  0  0
 12 18  1  0  0  0  0
 13 17  1  0  0  0  0
 13 29  1  0  0  0  0
 14 18  2  0  0  0  0
 14 30  1  0  0  0  0
 17 31  1  0  0  0  0
 18 32  1  0  0  0  0
 20 21  1  0  0  0  0
 20 22  1  0  0  0  0
 20 33  1  0  0  0  0
 20 34  1  0  0  0  0
 21 23  2  0  0  0  0
 21 24  1  0  0  0  0
 23 26  1  0  0  0  0
 23 36  1  0  0  0  0
 24 27  2  0  0  0  0
 24 37  1  0  0  0  0
 25 38  1  0  0  0  0
 26 28  2  0  0  0  0
 27 28  1  0  0  0  0
 27 41  1  0  0  0  0
 28 42  1  0  0  0  0
M  END
> <PUBCHEM_COMPOUND_CID>
49830671

> <PUBCHEM_CONFORMER_RMSD>
0.8

> <PUBCHEM_CONFORMER_DIVERSEORDER>
5
42
28
34
36
41
45
25
55
21
46
51
35
20
49
17
6
23
16
50
53
2
54
38
19
22
44
40
33
47
24
8
48
4
37
52
18
27
15
43
7
56
26
12
9
39
29
31
14
32
1
3
30
11
13
10

> <PUBCHEM_MMFF94_PARTIAL_CHARGES>
39
1 -0.06
10 0.05
12 0.12
13 -0.15
14 -0.15
15 0.3
16 0.1
17 -0.15
18 -0.15
19 0.41
2 -0.18
20 0.2
21 -0.14
22 0.57
23 -0.15
24 -0.15
25 0.47
26 0.18
27 -0.15
28 -0.15
29 0.15
3 -0.08
30 0.15
31 0.15
32 0.15
35 0.37
36 0.15
37 0.15
38 0.15
39 0.4
4 -0.57
40 0.4
41 0.15
42 0.15
5 -0.55
6 -0.57
7 -0.62
8 -0.9
9 -0.05

> <PUBCHEM_EFFECTIVE_ROTOR_COUNT>
5

> <PUBCHEM_PHARMACOPHORE_FEATURES>
11
1 1 hydrophobe
1 4 acceptor
1 5 donor
1 6 acceptor
1 8 cation
1 8 donor
3 6 7 25 cation
5 3 9 11 15 16 rings
6 10 12 13 14 17 18 rings
6 21 23 24 26 27 28 rings
6 6 7 11 15 19 25 rings

> <PUBCHEM_HEAVY_ATOM_COUNT>
28

> <PUBCHEM_ATOM_DEF_STEREO_COUNT>
0

> <PUBCHEM_ATOM_UDEF_STEREO_COUNT>
0

> <PUBCHEM_BOND_DEF_STEREO_COUNT>
0

> <PUBCHEM_BOND_UDEF_STEREO_COUNT>
0

> <PUBCHEM_ISOTOPIC_ATOM_COUNT>
0

> <PUBCHEM_COMPONENT_COUNT>
1

> <PUBCHEM_CACTVS_TAUTO_COUNT>
8

> <PUBCHEM_CONFORMER_ID>
02F85B0F00000005

> <PUBCHEM_MMFF94_ENERGY>
77.8199

> <PUBCHEM_FEATURE_SELFOVERLAP>
55.901

> <PUBCHEM_SHAPE_FINGERPRINT>
10 15 18335143085228954939
10076449 9 16916779726551822687
10087517 78 18407757032546371197
10411042 1 17979915231889128679
10554248 39 17131270139124937638
10595046 47 18408602586678823210
10906281 52 17560252310479100867
11646440 116 15574713586813593814
11991303 11 16988840622438452902
125118 31 18411420592421153576
12596602 18 18187646881733870483
13167372 99 18409446973692078288
13403585 85 18411982451563540947
13533116 47 17313660457062561122
13668630 136 11025789878570355682
13911987 19 16558746785358135519
14202776 33 18129656529893516175
14840074 17 14620794890203460988
14849402 71 18115312318472787004
14856354 85 18341050843132017631
14933364 13 18342177748055341070
15183329 4 18412549829480902376
15419008 145 18189041024868066448
15840311 113 18335707078959948557
15876981 60 18337391655802169101
15968369 153 17846770841252681488
16110190 28 18409167701348321125
16126227 98 18271250413928082481
16989713 51 17344902134524762103
16992752 21 18124881415593478919
17980427 23 18334863805560775423
19377110 9 17967523571795838666
20511986 3 17676481684640609051
21033648 29 17703491238631239130
21130935 74 18259701199255798378
21641784 216 16702034041135981520
21792934 111 16153701016653251695
22122407 14 18335993059858759360
2215653 11 13542466484172295574
23569914 2 17691353704356694576
23576562 1 16486109834692299657
34797466 226 18059587896655854078
3663271 9 18187362134219128554
392239 28 17603579729928344900
394071 54 16226339213497991558
4073 2 18333735745027764098
4144715 1 18340217314222373491
44249763 50 17489291036755338382
5104073 3 18040152886015630010
5265222 85 18272653497411878047
5364581 5 18335706095401978689
5718773 13 11963979008409233241
68570916 9 18336260236762818754

> <PUBCHEM_SHAPE_MULTIPOLES>
562.1
21.72
3.3
1.2
22.57
1.41
-0.15
11.83
3.79
-3.13
-0.27
1.44
-0.09
-1.78

> <PUBCHEM_SHAPE_SELFOVERLAP>
1205.314

> <PUBCHEM_SHAPE_VOLUME>
318.5

> <PUBCHEM_COORDINATE_TYPE>
2
5
10

$$$$
