49830376
  -OEChem-10052115183D

 47 50  0     0  0  0  0  0  0999 V2000
   -6.5977   -2.3874    0.4458 F   0  0  0  0  0  0  0  0  0  0  0  0
   -2.9335    1.0293   -0.2344 O   0  0  0  0  0  0  0  0  0  0  0  0
   -2.0255   -1.1181   -0.0024 N   0  0  0  0  0  0  0  0  0  0  0  0
    3.7112    0.1092    1.9436 N   0  0  0  0  0  0  0  0  0  0  0  0
    6.4202    0.5344    1.6276 N   0  0  0  0  0  0  0  0  0  0  0  0
   -4.3149   -0.8281    0.0979 N   0  0  0  0  0  0  0  0  0  0  0  0
    7.5924    0.4263   -0.8891 N   0  0  0  0  0  0  0  0  0  0  0  0
    3.5186   -0.2189   -0.4595 C   0  0  0  0  0  0  0  0  0  0  0  0
    2.0917   -0.4503   -0.3419 C   0  0  0  0  0  0  0  0  0  0  0  0
    4.3088    0.0534    0.6558 C   0  0  0  0  0  0  0  0  0  0  0  0
    5.6791    0.2734    0.5366 C   0  0  0  0  0  0  0  0  0  0  0  0
    4.1037   -0.2730   -1.7159 C   0  0  0  0  0  0  0  0  0  0  0  0
    6.2727    0.2187   -0.7378 C   0  0  0  0  0  0  0  0  0  0  0  0
    1.6092   -1.7434   -0.1396 C   0  0  0  0  0  0  0  0  0  0  0  0
    1.2019    0.6201   -0.4307 C   0  0  0  0  0  0  0  0  0  0  0  0
   -0.6529   -0.8954   -0.1155 C   0  0  0  0  0  0  0  0  0  0  0  0
    5.4740   -0.0542   -1.8460 C   0  0  0  0  0  0  0  0  0  0  0  0
    0.2369   -1.9660   -0.0265 C   0  0  0  0  0  0  0  0  0  0  0  0
   -0.1704    0.3977   -0.3177 C   0  0  0  0  0  0  0  0  0  0  0  0
   -5.6088   -0.2555    0.0999 C   0  0  0  0  0  0  0  0  0  0  0  0
   -7.0352    1.6866   -0.0742 C   0  0  0  0  0  0  0  0  0  0  0  0
   -5.7606    1.1198   -0.0753 C   0  0  0  0  0  0  0  0  0  0  0  0
   -3.0818   -0.1765   -0.0641 C   0  0  0  0  0  0  0  0  0  0  0  0
   -6.7315   -1.0642    0.2761 C   0  0  0  0  0  0  0  0  0  0  0  0
   -8.1580    0.8778    0.1019 C   0  0  0  0  0  0  0  0  0  0  0  0
    7.7385    0.7390    1.4552 C   0  0  0  0  0  0  0  0  0  0  0  0
   -8.0063   -0.4976    0.2770 C   0  0  0  0  0  0  0  0  0  0  0  0
    8.3163    0.6857    0.2146 C   0  0  0  0  0  0  0  0  0  0  0  0
   -7.1982    3.1574   -0.2611 C   0  0  0  0  0  0  0  0  0  0  0  0
    3.5151   -0.4833   -2.6054 H   0  0  0  0  0  0  0  0  0  0  0  0
    2.2893   -2.5889   -0.0675 H   0  0  0  0  0  0  0  0  0  0  0  0
    1.5629    1.6340   -0.5878 H   0  0  0  0  0  0  0  0  0  0  0  0
    5.9202   -0.0995   -2.8376 H   0  0  0  0  0  0  0  0  0  0  0  0
   -0.1252   -2.9788    0.1310 H   0  0  0  0  0  0  0  0  0  0  0  0
   -0.7926    1.2775   -0.3973 H   0  0  0  0  0  0  0  0  0  0  0  0
   -2.3006   -2.0862    0.1437 H   0  0  0  0  0  0  0  0  0  0  0  0
    4.2917    0.3078    2.7482 H   0  0  0  0  0  0  0  0  0  0  0  0
    2.7208   -0.0441    2.0703 H   0  0  0  0  0  0  0  0  0  0  0  0
   -4.9359    1.8040   -0.2151 H   0  0  0  0  0  0  0  0  0  0  0  0
   -4.2872   -1.8359    0.2310 H   0  0  0  0  0  0  0  0  0  0  0  0
   -9.1570    1.3055    0.1064 H   0  0  0  0  0  0  0  0  0  0  0  0
    8.3116    0.9470    2.3498 H   0  0  0  0  0  0  0  0  0  0  0  0
   -8.8801   -1.1276    0.4146 H   0  0  0  0  0  0  0  0  0  0  0  0
    9.3760    0.8488    0.0646 H   0  0  0  0  0  0  0  0  0  0  0  0
   -8.2358    3.4242   -0.4888 H   0  0  0  0  0  0  0  0  0  0  0  0
   -6.5832    3.5106   -1.0957 H   0  0  0  0  0  0  0  0  0  0  0  0
   -6.9012    3.6876    0.6494 H   0  0  0  0  0  0  0  0  0  0  0  0
  1 24  1  0  0  0  0
  2 23  2  0  0  0  0
  3 16  1  0  0  0  0
  3 23  1  0  0  0  0
  3 36  1  0  0  0  0
  4 10  1  0  0  0  0
  4 37  1  0  0  0  0
  4 38  1  0  0  0  0
  5 11  2  0  0  0  0
  5 26  1  0  0  0  0
  6 20  1  0  0  0  0
  6 23  1  0  0  0  0
  6 40  1  0  0  0  0
  7 13  2  0  0  0  0
  7 28  1  0  0  0  0
  8  9  1  0  0  0  0
  8 10  2  0  0  0  0
  8 12  1  0  0  0  0
  9 14  2  0  0  0  0
  9 15  1  0  0  0  0
 10 11  1  0  0  0  0
 11 13  1  0  0  0  0
 12 17  2  0  0  0  0
 12 30  1  0  0  0  0
 13 17  1  0  0  0  0
 14 18  1  0  0  0  0
 14 31  1  0  0  0  0
 15 19  2  0  0  0  0
 15 32  1  0  0  0  0
 16 18  2  0  0  0  0
 16 19  1  0  0  0  0
 17 33  1  0  0  0  0
 18 34  1  0  0  0  0
 19 35  1  0  0  0  0
 20 22  1  0  0  0  0
 20 24  2  0  0  0  0
 21 22  2  0  0  0  0
 21 25  1  0  0  0  0
 21 29  1  0  0  0  0
 22 39  1  0  0  0  0
 24 27  1  0  0  0  0
 25 27  2  0  0  0  0
 25 41  1  0  0  0  0
 26 28  2  0  0  0  0
 26 42  1  0  0  0  0
 27 43  1  0  0  0  0
 28 44  1  0  0  0  0
 29 45  1  0  0  0  0
 29 46  1  0  0  0  0
 29 47  1  0  0  0  0
M  END
> <PUBCHEM_COMPOUND_CID>
49830376

> <PUBCHEM_CONFORMER_RMSD>
0.8

> <PUBCHEM_CONFORMER_DIVERSEORDER>
2
25
23
13
12
30
6
28
27
17
3
20
7
26
9
19
15
8
21
1
14
32
33
31
10
11
24
18
29
34
4
16
22
5

> <PUBCHEM_MMFF94_PARTIAL_CHARGES>
42
1 -0.19
10 0.1
11 0.31
12 -0.15
13 0.31
14 -0.15
15 -0.15
16 0.12
17 -0.15
18 -0.15
19 -0.15
2 -0.57
20 0.12
21 -0.14
22 -0.15
23 0.69
24 0.19
25 -0.15
26 0.16
27 -0.15
28 0.16
29 0.14
3 -0.55
30 0.15
31 0.15
32 0.15
33 0.15
34 0.15
35 0.15
36 0.37
37 0.4
38 0.4
39 0.15
4 -0.9
40 0.37
41 0.15
42 0.15
43 0.15
44 0.15
5 -0.62
6 -0.55
7 -0.62

> <PUBCHEM_EFFECTIVE_ROTOR_COUNT>
5

> <PUBCHEM_PHARMACOPHORE_FEATURES>
11
1 2 acceptor
1 3 donor
1 4 cation
1 4 donor
1 5 acceptor
1 6 donor
1 7 acceptor
6 20 21 22 24 25 27 rings
6 5 7 11 13 26 28 rings
6 8 10 11 12 13 17 rings
6 9 14 15 16 18 19 rings

> <PUBCHEM_HEAVY_ATOM_COUNT>
29

> <PUBCHEM_ATOM_DEF_STEREO_COUNT>
0

> <PUBCHEM_ATOM_UDEF_STEREO_COUNT>
0

> <PUBCHEM_BOND_DEF_STEREO_COUNT>
0

> <PUBCHEM_BOND_UDEF_STEREO_COUNT>
0

> <PUBCHEM_ISOTOPIC_ATOM_COUNT>
0

> <PUBCHEM_COMPONENT_COUNT>
1

> <PUBCHEM_CACTVS_TAUTO_COUNT>
40

> <PUBCHEM_CONFORMER_ID>
02F859E800000002

> <PUBCHEM_MMFF94_ENERGY>
111.3223

> <PUBCHEM_FEATURE_SELFOVERLAP>
55.911

> <PUBCHEM_SHAPE_FINGERPRINT>
10 15 18408601457339288251
10050765 1 18049161068648517503
10299344 5 17240763994826886347
10319688 140 16987450706824278918
11135926 11 18187637008016163167
11315181 36 17346601864406649497
11409948 35 18271530777083718238
11638347 137 14851605475023304217
11719270 70 18335702719457899010
12089408 11 17894631465996932254
12133447 93 18339936904366047469
12236239 1 17458624549924763654
12664476 115 18409728461960450753
12741549 16 12613026228908227310
12838862 33 18337941342791253733
13668630 136 8502654813552668363
14028597 1 17023458655771189873
14118638 360 16343431613449723850
14170010 4 16989126478877598040
14251764 18 17603303764851342615
14251764 46 18413109471902901454
14294032 229 18334849520172780511
150020 25 17917434206937224461
15183329 4 18040437685808301501
15289351 153 17988639637036108362
15328684 2 17750221535485415121
15419008 47 17989484113253517609
15461852 350 17775558772209491887
15510794 2 17918278653854201415
1577012 14 18260545598336283603
15840311 113 17894916265827392076
15849732 13 17775568649864379645
16989713 51 17916581098559920399
17093844 174 18409731756052173705
18335252 114 15985098622484924088
18608769 82 18412544323411495309
19301679 30 16806431532622973442
20157964 124 16559035995860934246
20554085 129 18342451543894641442
21033648 29 17702367620311938018
21130935 74 18334856074362082363
22224240 67 18333730229993836858
23522609 53 17241915158312081469
249057 3 15841548600359736148
335507 130 18342460387522194367
4073 2 18041007224337091843
4340502 62 15502377829145069546
44280117 145 17774718775686294583
44802255 64 17561076979118880173
5385378 56 18187080607660943474
5758199 1 18333169462089549899
6081469 158 17918280831892957852
636775 72 18341049623962854385

> <PUBCHEM_SHAPE_MULTIPOLES>
558.76
29.16
1.78
1.2
14.15
0.33
-0.03
10.58
-3.28
4.45
0
-2.93
0.11
1.31

> <PUBCHEM_SHAPE_SELFOVERLAP>
1242.727

> <PUBCHEM_SHAPE_VOLUME>
297.7

> <PUBCHEM_COORDINATE_TYPE>
2
5
10

$$$$
