49830360
  -OEChem-10052120443D

 58 62  0     0  0  0  0  0  0999 V2000
   -3.6819   -0.4210    1.7562 S   0  0  0  0  0  0  0  0  0  0  0  0
   11.2577    0.4308    0.1088 F   0  0  0  0  0  0  0  0  0  0  0  0
    4.8889   -1.2435   -0.3874 O   0  0  0  0  0  0  0  0  0  0  0  0
   -8.1121   -0.3512   -0.2176 N   0  0  0  0  0  0  0  0  0  0  0  0
   -3.1921    1.7523   -2.1296 N   0  0  0  0  0  0  0  0  0  0  0  0
   -8.0835    0.3421    0.9334 N   0  0  0  0  0  0  0  0  0  0  0  0
   -0.8522    1.7323   -1.7957 N   0  0  0  0  0  0  0  0  0  0  0  0
    4.2172    0.7078    0.7222 N   0  0  0  0  0  0  0  0  0  0  0  0
    6.4644    0.3145    0.3604 N   0  0  0  0  0  0  0  0  0  0  0  0
   -2.3383    0.7164   -0.1373 C   0  0  0  0  0  0  0  0  0  0  0  0
   -3.6471    0.4119    0.2475 C   0  0  0  0  0  0  0  0  0  0  0  0
   -4.7412    0.7722   -0.5480 C   0  0  0  0  0  0  0  0  0  0  0  0
   -1.3903    0.2494    0.8335 C   0  0  0  0  0  0  0  0  0  0  0  0
   -6.0878    0.4682   -0.1708 C   0  0  0  0  0  0  0  0  0  0  0  0
    0.0471    0.3663    0.8055 C   0  0  0  0  0  0  0  0  0  0  0  0
   -2.1464    1.3972   -1.3500 C   0  0  0  0  0  0  0  0  0  0  0  0
   -9.3146   -1.0497   -0.6038 C   0  0  0  0  0  0  0  0  0  0  0  0
   -6.9416   -0.3076   -0.9165 C   0  0  0  0  0  0  0  0  0  0  0  0
   -1.9839   -0.3805    1.9015 C   0  0  0  0  0  0  0  0  0  0  0  0
   -4.4375    1.4396   -1.7215 C   0  0  0  0  0  0  0  0  0  0  0  0
   -6.8445    0.8404    0.9564 C   0  0  0  0  0  0  0  0  0  0  0  0
   -9.4860   -2.3535    0.1765 C   0  0  0  0  0  0  0  0  0  0  0  0
    0.8170   -0.6333    0.2105 C   0  0  0  0  0  0  0  0  0  0  0  0
    0.6673    1.4796    1.3727 C   0  0  0  0  0  0  0  0  0  0  0  0
    2.8270    0.5934    0.7505 C   0  0  0  0  0  0  0  0  0  0  0  0
    2.2069   -0.5199    0.1830 C   0  0  0  0  0  0  0  0  0  0  0  0
    2.0573    1.5931    1.3452 C   0  0  0  0  0  0  0  0  0  0  0  0
  -10.7316   -3.1053   -0.2649 C   0  0  0  0  0  0  0  0  0  0  0  0
    5.1667   -0.1872    0.1713 C   0  0  0  0  0  0  0  0  0  0  0  0
    7.6904   -0.2688   -0.0382 C   0  0  0  0  0  0  0  0  0  0  0  0
    8.8933    0.3813    0.2374 C   0  0  0  0  0  0  0  0  0  0  0  0
    7.6962   -1.4927   -0.7075 C   0  0  0  0  0  0  0  0  0  0  0  0
   10.1021   -0.1925   -0.1565 C   0  0  0  0  0  0  0  0  0  0  0  0
    8.9050   -2.0662   -1.1013 C   0  0  0  0  0  0  0  0  0  0  0  0
   10.1080   -1.4161   -0.8259 C   0  0  0  0  0  0  0  0  0  0  0  0
   -9.2595   -1.2469   -1.6805 H   0  0  0  0  0  0  0  0  0  0  0  0
  -10.1597   -0.3730   -0.4321 H   0  0  0  0  0  0  0  0  0  0  0  0
   -6.8202   -0.8225   -1.8606 H   0  0  0  0  0  0  0  0  0  0  0  0
   -1.5093   -0.8233    2.7672 H   0  0  0  0  0  0  0  0  0  0  0  0
   -5.2197    1.7634   -2.4035 H   0  0  0  0  0  0  0  0  0  0  0  0
   -6.5515    1.4571    1.7946 H   0  0  0  0  0  0  0  0  0  0  0  0
   -9.5522   -2.1450    1.2512 H   0  0  0  0  0  0  0  0  0  0  0  0
   -8.6075   -2.9942    0.0329 H   0  0  0  0  0  0  0  0  0  0  0  0
    0.3477   -1.5064   -0.2371 H   0  0  0  0  0  0  0  0  0  0  0  0
    0.0818    2.2684    1.8390 H   0  0  0  0  0  0  0  0  0  0  0  0
    2.7310   -1.3346   -0.2957 H   0  0  0  0  0  0  0  0  0  0  0  0
    2.5272    2.4664    1.7906 H   0  0  0  0  0  0  0  0  0  0  0  0
  -10.8363   -4.0335    0.3054 H   0  0  0  0  0  0  0  0  0  0  0  0
  -11.6309   -2.5028   -0.1023 H   0  0  0  0  0  0  0  0  0  0  0  0
  -10.6777   -3.3634   -1.3274 H   0  0  0  0  0  0  0  0  0  0  0  0
   -0.0158    1.5092   -1.2841 H   0  0  0  0  0  0  0  0  0  0  0  0
   -0.7693    2.2226   -2.6770 H   0  0  0  0  0  0  0  0  0  0  0  0
    4.5954    1.5466    1.1553 H   0  0  0  0  0  0  0  0  0  0  0  0
    6.5432    1.2064    0.8423 H   0  0  0  0  0  0  0  0  0  0  0  0
    8.9032    1.3353    0.7581 H   0  0  0  0  0  0  0  0  0  0  0  0
    6.8094   -2.0572   -0.9573 H   0  0  0  0  0  0  0  0  0  0  0  0
    8.9112   -3.0192   -1.6226 H   0  0  0  0  0  0  0  0  0  0  0  0
   11.0494   -1.8626   -1.1323 H   0  0  0  0  0  0  0  0  0  0  0  0
  1 11  1  0  0  0  0
  1 19  1  0  0  0  0
  2 33  1  0  0  0  0
  3 29  2  0  0  0  0
  4  6  1  0  0  0  0
  4 17  1  0  0  0  0
  4 18  1  0  0  0  0
  5 16  2  0  0  0  0
  5 20  1  0  0  0  0
  6 21  2  0  0  0  0
  7 16  1  0  0  0  0
  7 51  1  0  0  0  0
  7 52  1  0  0  0  0
  8 25  1  0  0  0  0
  8 29  1  0  0  0  0
  8 53  1  0  0  0  0
  9 29  1  0  0  0  0
  9 30  1  0  0  0  0
  9 54  1  0  0  0  0
 10 11  2  0  0  0  0
 10 13  1  0  0  0  0
 10 16  1  0  0  0  0
 11 12  1  0  0  0  0
 12 14  1  0  0  0  0
 12 20  2  0  0  0  0
 13 15  1  0  0  0  0
 13 19  2  0  0  0  0
 14 18  2  0  0  0  0
 14 21  1  0  0  0  0
 15 23  2  0  0  0  0
 15 24  1  0  0  0  0
 17 22  1  0  0  0  0
 17 36  1  0  0  0  0
 17 37  1  0  0  0  0
 18 38  1  0  0  0  0
 19 39  1  0  0  0  0
 20 40  1  0  0  0  0
 21 41  1  0  0  0  0
 22 28  1  0  0  0  0
 22 42  1  0  0  0  0
 22 43  1  0  0  0  0
 23 26  1  0  0  0  0
 23 44  1  0  0  0  0
 24 27  2  0  0  0  0
 24 45  1  0  0  0  0
 25 26  2  0  0  0  0
 25 27  1  0  0  0  0
 26 46  1  0  0  0  0
 27 47  1  0  0  0  0
 28 48  1  0  0  0  0
 28 49  1  0  0  0  0
 28 50  1  0  0  0  0
 30 31  2  0  0  0  0
 30 32  1  0  0  0  0
 31 33  1  0  0  0  0
 31 55  1  0  0  0  0
 32 34  2  0  0  0  0
 32 56  1  0  0  0  0
 33 35  2  0  0  0  0
 34 35  1  0  0  0  0
 34 57  1  0  0  0  0
 35 58  1  0  0  0  0
M  END
> <PUBCHEM_COMPOUND_CID>
49830360

> <PUBCHEM_CONFORMER_RMSD>
1

> <PUBCHEM_CONFORMER_DIVERSEORDER>
1
50
27
38
56
60
54
30
52
13
68
55
70
18
61
59
28
6
21
39
48
7
8
17
69
23
42
40
67
41
16
20
47
64
65
36
15
57
62
53
43
5
33
14
29
34
22
35
44
19
46
9
49
66
11
45
32
37
31
25
10
58
4
12
63
24
51
26
3
2

> <PUBCHEM_MMFF94_PARTIAL_CHARGES>
48
1 -0.08
11 0.04
12 0.05
13 -0.05
14 -0.05
15 0.05
16 0.41
17 0.26
18 -0.3
19 -0.11
2 -0.19
20 0.16
21 0.14
23 -0.15
24 -0.15
25 0.12
26 -0.15
27 -0.15
29 0.69
3 -0.57
30 0.12
31 -0.15
32 -0.15
33 0.19
34 -0.15
35 -0.15
38 0.15
39 0.15
4 0.31
40 0.15
41 0.15
44 0.15
45 0.15
46 0.15
47 0.15
5 -0.62
51 0.4
52 0.4
53 0.37
54 0.37
55 0.15
56 0.15
57 0.15
58 0.15
6 -0.71
7 -0.9
8 -0.55
9 -0.55

> <PUBCHEM_EFFECTIVE_ROTOR_COUNT>
8

> <PUBCHEM_PHARMACOPHORE_FEATURES>
12
1 28 hydrophobe
1 3 acceptor
1 6 acceptor
1 7 donor
1 8 donor
1 9 donor
3 5 7 16 cation
5 1 10 11 13 19 rings
5 4 6 14 18 21 rings
6 15 23 24 25 26 27 rings
6 30 31 32 33 34 35 rings
6 5 10 11 12 16 20 rings

> <PUBCHEM_HEAVY_ATOM_COUNT>
35

> <PUBCHEM_ATOM_DEF_STEREO_COUNT>
0

> <PUBCHEM_ATOM_UDEF_STEREO_COUNT>
0

> <PUBCHEM_BOND_DEF_STEREO_COUNT>
0

> <PUBCHEM_BOND_UDEF_STEREO_COUNT>
0

> <PUBCHEM_ISOTOPIC_ATOM_COUNT>
0

> <PUBCHEM_COMPONENT_COUNT>
1

> <PUBCHEM_CACTVS_TAUTO_COUNT>
6

> <PUBCHEM_CONFORMER_ID>
02F859D800000001

> <PUBCHEM_MMFF94_ENERGY>
96.971

> <PUBCHEM_FEATURE_SELFOVERLAP>
61.011

> <PUBCHEM_SHAPE_FINGERPRINT>
10 15 9655571903798460864
10076449 9 18333732403231548825
10299344 5 16200429153391350108
10429389 143 11602814697555893239
10674148 151 12175620681165729391
11135926 11 15554158182087975564
11315181 36 14634875228199424745
11408170 108 16128104347900039366
11456790 92 12319453325076792275
11463208 3 18271525412369151079
11476731 38 17846498150353944112
12082328 90 18201438026385746884
12144603 126 16558747928194158144
12236239 1 16630519657424285065
12522641 33 14201397175806547928
12559415 141 17489317395086498294
12664476 115 16950280715772579380
12758862 11 17967537904302354280
14118638 360 17385719137394560960
14202775 3 18201725054365398719
14251764 46 10881403136196027328
14344974 52 17968376840448527156
15065858 18 18272086064091971252
15183329 4 16805611331382406180
15419008 47 18259982657480011316
15461852 350 17967251992223168327
15510794 2 18413110571947552322
15538507 75 12463297965083831724
1577012 14 16226602975223074764
16728433 110 18131347540349332368
1754911 235 14707208824961309795
1818759 1 17346881139785345054
19315958 150 13110965323437233052
20105231 36 18201999949921157895
21267235 1 17846495928542387145
21362267 2 13984949592895356206
21792934 111 8070026667402596118
21792961 116 18187931634466771944
232437 2 17917712400901825130
24771293 8 15068621535131591351
249057 3 17313392240332861672
306946 40 8502379919109972595
335352 9 16805321111139955457
4017518 198 18333452050038485699
4149490 64 17489020577794735771
4516262 110 13551189987809621240
45377200 153 18337389448269139547
4760202 170 13551478089926826966
4874694 18 17240202128392602426
5028188 123 18261109665403247101
54039377 194 17775565342813394769
57676310 188 18334290955856605403
636775 8 17676210204559699051
6691757 9 16443640020995088617
67123 10 18131633379170512216
9663363 56 17458064855693897477

> <PUBCHEM_SHAPE_MULTIPOLES>
681.1
39.54
1.94
1.5
40
1.17
0.22
27.14
6.04
-2.8
0.38
-1.6
-0.6
2.01

> <PUBCHEM_SHAPE_SELFOVERLAP>
1494.251

> <PUBCHEM_SHAPE_VOLUME>
374

> <PUBCHEM_COORDINATE_TYPE>
2
5
10

$$$$
