135976660
  -OEChem-10052115143D

 35 37  0     0  0  0  0  0  0999 V2000
   -1.4135    1.1173    1.6639 O   0  0  0  0  0  0  0  0  0  0  0  0
    0.8625   -3.4354    0.4234 O   0  0  0  0  0  0  0  0  0  0  0  0
   -2.3425   -2.3219    0.0713 N   0  0  0  0  0  0  0  0  0  0  0  0
   -1.4821   -3.3415    0.3261 N   0  0  0  0  0  0  0  0  0  0  0  0
    0.7373   -0.5372   -0.1241 N   0  0  0  0  0  0  0  0  0  0  0  0
   -3.8261    1.4144   -1.7095 N   0  0  0  0  0  0  0  0  0  0  0  0
    1.8550   -1.0829    0.0121 N   0  0  0  0  0  0  0  0  0  0  0  0
   -1.6414   -1.1535   -0.0893 C   0  0  0  0  0  0  0  0  0  0  0  0
   -2.3337    0.1206   -0.3154 C   0  0  0  0  0  0  0  0  0  0  0  0
   -0.3185   -1.3770   -0.0053 C   0  0  0  0  0  0  0  0  0  0  0  0
   -2.1999    1.1976    0.5538 C   0  0  0  0  0  0  0  0  0  0  0  0
   -0.1906   -2.8402    0.2739 C   0  0  0  0  0  0  0  0  0  0  0  0
   -3.1513    0.2785   -1.4229 C   0  0  0  0  0  0  0  0  0  0  0  0
   -2.8783    2.3831    0.2926 C   0  0  0  0  0  0  0  0  0  0  0  0
   -3.6717    2.4398   -0.8419 C   0  0  0  0  0  0  0  0  0  0  0  0
    2.8733   -0.1350   -0.1276 C   0  0  0  0  0  0  0  0  0  0  0  0
   -1.3423    2.2761    2.4920 C   0  0  0  0  0  0  0  0  0  0  0  0
    3.3423    0.5547    0.9904 C   0  0  0  0  0  0  0  0  0  0  0  0
    3.4205    0.1208   -1.3848 C   0  0  0  0  0  0  0  0  0  0  0  0
    4.3585    1.5001    0.8513 C   0  0  0  0  0  0  0  0  0  0  0  0
    4.4368    1.0660   -1.5241 C   0  0  0  0  0  0  0  0  0  0  0  0
    4.9057    1.7557   -0.4060 C   0  0  0  0  0  0  0  0  0  0  0  0
   -3.3193   -2.3591    0.3263 H   0  0  0  0  0  0  0  0  0  0  0  0
   -1.8135   -4.2833    0.4862 H   0  0  0  0  0  0  0  0  0  0  0  0
   -3.2975   -0.5216   -2.1429 H   0  0  0  0  0  0  0  0  0  0  0  0
   -2.8375    3.2730    0.9077 H   0  0  0  0  0  0  0  0  0  0  0  0
   -4.2220    3.3411   -1.0914 H   0  0  0  0  0  0  0  0  0  0  0  0
   -0.8941    3.1240    1.9627 H   0  0  0  0  0  0  0  0  0  0  0  0
   -2.3167    2.5227    2.9272 H   0  0  0  0  0  0  0  0  0  0  0  0
   -0.6746    2.0348    3.3257 H   0  0  0  0  0  0  0  0  0  0  0  0
    2.9225    0.3623    1.9744 H   0  0  0  0  0  0  0  0  0  0  0  0
    3.0624   -0.4120   -2.2620 H   0  0  0  0  0  0  0  0  0  0  0  0
    4.7237    2.0371    1.7219 H   0  0  0  0  0  0  0  0  0  0  0  0
    4.8630    1.2650   -2.5030 H   0  0  0  0  0  0  0  0  0  0  0  0
    5.6969    2.4918   -0.5144 H   0  0  0  0  0  0  0  0  0  0  0  0
  1 11  1  0  0  0  0
  1 17  1  0  0  0  0
  2 12  2  0  0  0  0
  3  4  1  0  0  0  0
  3  8  1  0  0  0  0
  3 23  1  0  0  0  0
  4 12  1  0  0  0  0
  4 24  1  0  0  0  0
  5  7  2  0  0  0  0
  5 10  1  0  0  0  0
  6 13  2  0  0  0  0
  6 15  1  0  0  0  0
  7 16  1  0  0  0  0
  8  9  1  0  0  0  0
  8 10  2  0  0  0  0
  9 11  2  0  0  0  0
  9 13  1  0  0  0  0
 10 12  1  0  0  0  0
 11 14  1  0  0  0  0
 13 25  1  0  0  0  0
 14 15  2  0  0  0  0
 14 26  1  0  0  0  0
 15 27  1  0  0  0  0
 16 18  2  0  0  0  0
 16 19  1  0  0  0  0
 17 28  1  0  0  0  0
 17 29  1  0  0  0  0
 17 30  1  0  0  0  0
 18 20  1  0  0  0  0
 18 31  1  0  0  0  0
 19 21  2  0  0  0  0
 19 32  1  0  0  0  0
 20 22  2  0  0  0  0
 20 33  1  0  0  0  0
 21 22  1  0  0  0  0
 21 34  1  0  0  0  0
 22 35  1  0  0  0  0
M  END
> <PUBCHEM_COMPOUND_CID>
135976660

> <PUBCHEM_CONFORMER_RMSD>
0.6

> <PUBCHEM_CONFORMER_DIVERSEORDER>
3
24
16
15
7
10
35
6
20
22
8
31
29
19
5
2
25
17
13
14
23
1
21
36
9
28
4
18
34
32
12
26
33
30
11
27

> <PUBCHEM_MMFF94_PARTIAL_CHARGES>
32
1 -0.36
10 0.19
11 0.08
12 0.62
13 0.16
14 -0.15
15 0.16
16 0.18
17 0.28
18 -0.15
19 -0.15
2 -0.57
20 -0.15
21 -0.15
22 -0.15
23 0.4
24 0.37
25 0.15
26 0.15
27 0.15
3 -0.52
31 0.15
32 0.15
33 0.15
34 0.15
35 0.15
4 -0.41
5 -0.17
6 -0.62
7 -0.18
8 0.07
9 0.03

> <PUBCHEM_EFFECTIVE_ROTOR_COUNT>
4

> <PUBCHEM_PHARMACOPHORE_FEATURES>
8
1 1 acceptor
1 2 acceptor
1 3 donor
1 4 donor
1 6 acceptor
5 3 4 8 10 12 rings
6 16 18 19 20 21 22 rings
6 6 9 11 13 14 15 rings

> <PUBCHEM_HEAVY_ATOM_COUNT>
22

> <PUBCHEM_ATOM_DEF_STEREO_COUNT>
0

> <PUBCHEM_ATOM_UDEF_STEREO_COUNT>
0

> <PUBCHEM_BOND_DEF_STEREO_COUNT>
0

> <PUBCHEM_BOND_UDEF_STEREO_COUNT>
0

> <PUBCHEM_ISOTOPIC_ATOM_COUNT>
0

> <PUBCHEM_COMPONENT_COUNT>
1

> <PUBCHEM_CACTVS_TAUTO_COUNT>
-1

> <PUBCHEM_CONFORMER_ID>
081AD6D400000003

> <PUBCHEM_MMFF94_ENERGY>
83.3403

> <PUBCHEM_FEATURE_SELFOVERLAP>
42.202

> <PUBCHEM_SHAPE_FINGERPRINT>
10498660 4 18411700997893219068
11370993 70 18337098004023805748
11582403 64 16589683713932416989
11640471 11 18040709273369233730
11725454 13 16806429324403369005
12107183 9 18116132413008526274
12173636 292 18408882966449144030
12788726 201 17898000485035531570
13134695 92 17105655744261368283
13583140 156 17095522924277745432
13965767 371 17895745198029635284
14123250 116 17917161480730015081
14142880 1 17968370242867084111
14468879 13 17895479103225647561
14767858 380 18266154267606120727
14787075 74 18343861117980128663
15342168 16 18189900816589608453
15475509 8 15554155962539611273
1741750 31 18408038524497242166
19765921 60 18268979904788137567
20510252 161 18267871751259297034
22749437 52 18411417298080926252
22907989 373 18197791087686149820
22956985 138 15741627543792452426
23419403 2 17556570277865725187
235170 7 15841544176528097220
23557571 272 18127706022072431646
23559900 14 18343587335479879350
283562 15 18263646336795940491
341906 21 18337380660776042152
394222 165 18042672906610621659
4028521 119 18273213101521913548
469060 322 18115887350295175963
474 4 18191864518296549975
5048184 11 18335141977370284412
526903 126 18272086080602116065
6034566 193 18262819409494111141
7808743 9 18261961859602436436
84936 182 18125148342998323753
9981440 41 18336815450926155186

> <PUBCHEM_SHAPE_MULTIPOLES>
416.11
8.62
3.59
1.58
8.64
2.71
-0.3
-6.89
3.1
-2.35
-0.95
-0.36
-1.2
0.08

> <PUBCHEM_SHAPE_SELFOVERLAP>
913.324

> <PUBCHEM_SHAPE_VOLUME>
224.3

> <PUBCHEM_COORDINATE_TYPE>
2
5
10

$$$$
