49830483
  -OEChem-10052120433D

 48 50  0     1  0  0  0  0  0999 V2000
    6.6274    1.2729    1.4100 O   0  0  0  0  0  0  0  0  0  0  0  0
    0.8280   -2.7528    1.2266 O   0  0  0  0  0  0  0  0  0  0  0  0
    1.6122   -1.1094   -0.2092 N   0  0  0  0  0  0  0  0  0  0  0  0
   -7.1972    1.5549    0.1009 N   0  0  0  0  0  0  0  0  0  0  0  0
    2.9841   -1.5624   -0.2493 C   0  0  2  0  0  0  0  0  0  0  0  0
    3.9416   -0.4032   -0.4228 C   0  0  0  0  0  0  0  0  0  0  0  0
    3.1656   -2.6351   -1.3213 C   0  0  0  0  0  0  0  0  0  0  0  0
   -0.7284   -1.1788    0.4530 C   0  0  0  0  0  0  0  0  0  0  0  0
    0.6097   -1.7417    0.5357 C   0  0  0  0  0  0  0  0  0  0  0  0
    4.8548   -0.0955    0.5857 C   0  0  0  0  0  0  0  0  0  0  0  0
    3.9102    0.3579   -1.5914 C   0  0  0  0  0  0  0  0  0  0  0  0
   -3.2957   -0.0988    0.2946 C   0  0  0  0  0  0  0  0  0  0  0  0
   -4.6270    0.4612    0.2121 C   0  0  0  0  0  0  0  0  0  0  0  0
   -1.8417   -1.9933    0.6608 C   0  0  0  0  0  0  0  0  0  0  0  0
   -0.8988    0.1755    0.1658 C   0  0  0  0  0  0  0  0  0  0  0  0
    5.7366    0.9733    0.4256 C   0  0  0  0  0  0  0  0  0  0  0  0
   -3.1252   -1.4533    0.5816 C   0  0  0  0  0  0  0  0  0  0  0  0
   -2.1825    0.7155    0.0866 C   0  0  0  0  0  0  0  0  0  0  0  0
    4.7919    1.4267   -1.7514 C   0  0  0  0  0  0  0  0  0  0  0  0
   -5.3220    0.4896   -0.9919 C   0  0  0  0  0  0  0  0  0  0  0  0
    5.7051    1.7345   -0.7429 C   0  0  0  0  0  0  0  0  0  0  0  0
   -5.2156    0.9789    1.3606 C   0  0  0  0  0  0  0  0  0  0  0  0
   -4.7493   -0.0477   -2.2590 C   0  0  0  0  0  0  0  0  0  0  0  0
   -6.5926    1.0424   -0.9944 C   0  0  0  0  0  0  0  0  0  0  0  0
   -6.4910    1.5098    1.2528 C   0  0  0  0  0  0  0  0  0  0  0  0
    7.4999    2.3787    1.1813 C   0  0  0  0  0  0  0  0  0  0  0  0
    3.1917   -2.0434    0.7154 H   0  0  0  0  0  0  0  0  0  0  0  0
    1.3620   -0.3482   -0.8319 H   0  0  0  0  0  0  0  0  0  0  0  0
    2.8944   -2.2693   -2.3180 H   0  0  0  0  0  0  0  0  0  0  0  0
    4.2042   -2.9816   -1.3605 H   0  0  0  0  0  0  0  0  0  0  0  0
    2.5287   -3.5025   -1.1143 H   0  0  0  0  0  0  0  0  0  0  0  0
    4.8868   -0.6823    1.5003 H   0  0  0  0  0  0  0  0  0  0  0  0
    3.2038    0.1369   -2.3870 H   0  0  0  0  0  0  0  0  0  0  0  0
   -1.7306   -3.0518    0.8810 H   0  0  0  0  0  0  0  0  0  0  0  0
   -0.0597    0.8512    0.0279 H   0  0  0  0  0  0  0  0  0  0  0  0
   -3.9825   -2.1022    0.7448 H   0  0  0  0  0  0  0  0  0  0  0  0
   -2.2980    1.7746   -0.1320 H   0  0  0  0  0  0  0  0  0  0  0  0
    4.7660    2.0194   -2.6613 H   0  0  0  0  0  0  0  0  0  0  0  0
    6.3607    2.5776   -0.9324 H   0  0  0  0  0  0  0  0  0  0  0  0
   -4.7068    0.9759    2.3194 H   0  0  0  0  0  0  0  0  0  0  0  0
   -5.4473    0.0640   -3.0963 H   0  0  0  0  0  0  0  0  0  0  0  0
   -4.5308   -1.1163   -2.1646 H   0  0  0  0  0  0  0  0  0  0  0  0
   -3.8345    0.4890   -2.5305 H   0  0  0  0  0  0  0  0  0  0  0  0
   -7.1883    1.0955   -1.9005 H   0  0  0  0  0  0  0  0  0  0  0  0
   -6.9942    1.9263    2.1192 H   0  0  0  0  0  0  0  0  0  0  0  0
    8.1604    2.1999    0.3260 H   0  0  0  0  0  0  0  0  0  0  0  0
    6.9434    3.3174    1.0870 H   0  0  0  0  0  0  0  0  0  0  0  0
    8.1396    2.4737    2.0648 H   0  0  0  0  0  0  0  0  0  0  0  0
  1 16  1  0  0  0  0
  1 26  1  0  0  0  0
  2  9  2  0  0  0  0
  3  5  1  0  0  0  0
  3  9  1  0  0  0  0
  3 28  1  0  0  0  0
  4 24  2  0  0  0  0
  4 25  1  0  0  0  0
  5  6  1  0  0  0  0
  5  7  1  0  0  0  0
  5 27  1  0  0  0  0
  6 10  2  0  0  0  0
  6 11  1  0  0  0  0
  7 29  1  0  0  0  0
  7 30  1  0  0  0  0
  7 31  1  0  0  0  0
  8  9  1  0  0  0  0
  8 14  2  0  0  0  0
  8 15  1  0  0  0  0
 10 16  1  0  0  0  0
 10 32  1  0  0  0  0
 11 19  2  0  0  0  0
 11 33  1  0  0  0  0
 12 13  1  0  0  0  0
 12 17  2  0  0  0  0
 12 18  1  0  0  0  0
 13 20  2  0  0  0  0
 13 22  1  0  0  0  0
 14 17  1  0  0  0  0
 14 34  1  0  0  0  0
 15 18  2  0  0  0  0
 15 35  1  0  0  0  0
 16 21  2  0  0  0  0
 17 36  1  0  0  0  0
 18 37  1  0  0  0  0
 19 21  1  0  0  0  0
 19 38  1  0  0  0  0
 20 23  1  0  0  0  0
 20 24  1  0  0  0  0
 21 39  1  0  0  0  0
 22 25  2  0  0  0  0
 22 40  1  0  0  0  0
 23 41  1  0  0  0  0
 23 42  1  0  0  0  0
 23 43  1  0  0  0  0
 24 44  1  0  0  0  0
 25 45  1  0  0  0  0
 26 46  1  0  0  0  0
 26 47  1  0  0  0  0
 26 48  1  0  0  0  0
M  END
> <PUBCHEM_COMPOUND_CID>
49830483

> <PUBCHEM_CONFORMER_RMSD>
0.8

> <PUBCHEM_CONFORMER_DIVERSEORDER>
1
3
96
57
15
39
80
90
47
58
63
81
45
88
7
99
65
56
18
91
53
33
67
94
92
93
24
34
85
78
100
87
5
26
50
89
82
37
61
55
59
41
17
16
95
43
70
54
36
60
73
25
75
101
79
74
14
72
10
69
4
66
48
27
22
32
52
71
83
12
13
40
76
28
21
31
9
11
30
38
42
23
44
68
84
77
46
86
19
97
62
98
35
29
49
64
6
2
8
20
51

> <PUBCHEM_MMFF94_PARTIAL_CHARGES>
35
1 -0.36
10 -0.15
11 -0.15
14 -0.15
15 -0.15
16 0.08
17 -0.15
18 -0.15
19 -0.15
2 -0.57
20 -0.14
21 -0.15
22 -0.15
23 0.14
24 0.16
25 0.16
26 0.28
28 0.37
3 -0.73
32 0.15
33 0.15
34 0.15
35 0.15
36 0.15
37 0.15
38 0.15
39 0.15
4 -0.62
40 0.15
44 0.15
45 0.15
5 0.44
6 -0.14
8 0.09
9 0.54

> <PUBCHEM_EFFECTIVE_ROTOR_COUNT>
6

> <PUBCHEM_PHARMACOPHORE_FEATURES>
7
1 1 acceptor
1 2 acceptor
1 3 donor
1 4 acceptor
6 4 13 20 22 24 25 rings
6 6 10 11 16 19 21 rings
6 8 12 14 15 17 18 rings

> <PUBCHEM_HEAVY_ATOM_COUNT>
26

> <PUBCHEM_ATOM_DEF_STEREO_COUNT>
0

> <PUBCHEM_ATOM_UDEF_STEREO_COUNT>
1

> <PUBCHEM_BOND_DEF_STEREO_COUNT>
0

> <PUBCHEM_BOND_UDEF_STEREO_COUNT>
0

> <PUBCHEM_ISOTOPIC_ATOM_COUNT>
0

> <PUBCHEM_COMPONENT_COUNT>
1

> <PUBCHEM_CACTVS_TAUTO_COUNT>
2

> <PUBCHEM_CONFORMER_ID>
02F85A5300000001

> <PUBCHEM_MMFF94_ENERGY>
88.1215

> <PUBCHEM_FEATURE_SELFOVERLAP>
35.522

> <PUBCHEM_SHAPE_FINGERPRINT>
10 15 16950572094500587061
10319926 262 14851603241756549447
10692045 39 16153702099058616378
117089 54 9798598588006088940
12236239 1 18130224844920134403
12422481 6 16298383552481289071
13668630 136 10375861975243945613
13673619 4 9367351435920243970
13685833 64 8718827587535459914
13690498 29 16199571624315506551
13955234 65 17897165719323526043
14123256 34 9079123267223219976
14211702 104 9366470718537988433
14461889 52 17968388917664754707
14528608 73 17561082501212406382
14681490 219 17632576045733292177
15183329 4 18408046216715552341
15238133 3 18115311206756232284
15348495 7 15936419977941681545
15840311 113 18194133915351382917
16994733 274 18060417993506638401
18222031 100 11815892327718325914
20567600 75 13182734810994656665
20715895 44 18186520999191389732
21033648 29 18187935014474502330
21150785 3 16845569825185988877
21298829 104 18342178873200083944
21365058 113 12607396719781805027
21585481 151 13479126870507613176
21774942 28 17846504686719318584
21792934 111 17531805745455518853
21859007 373 17024011671612650094
23081809 10 17774721953360751771
23522609 53 16844747330564619163
23559900 14 18263379035701858822
24771750 20 18048610509987891253
25269216 80 17274810403442774159
2748736 6 18335982042734706492
2767999 5 18407757044977559892
2838139 119 18412258419922601900
3004659 81 16987721182136516774
312425 54 14490476425899723920
3472631 163 18408328804040917262
34797466 226 15985097531283421907
3504750 166 11674878910148610387
3680242 22 17968097508370171816
4340502 62 16226054357833567867
439807 62 12823306688477509844
445580 126 18259698986750878744
465052 167 8646772192684279248
474113 269 11819278897611482713
5104073 3 17023752376216008856
5372103 7 16199289054386081304
543368 44 18272369768077697849
59682541 52 17203060595192982470
6898599 12 18200597024344278767
86090 222 13190612786175590800
8863177 126 10591748905186755100

> <PUBCHEM_SHAPE_MULTIPOLES>
513.37
20.91
2.47
1.58
1.46
0.98
0.57
-17.72
-0.93
2.45
-0.42
-0.01
-0.26
0.64

> <PUBCHEM_SHAPE_SELFOVERLAP>
1110.673

> <PUBCHEM_SHAPE_VOLUME>
281

> <PUBCHEM_COORDINATE_TYPE>
2
5
10

$$$$
