56643097
  -OEChem-10052115173D

 38 40  0     0  0  0  0  0  0999 V2000
    1.7920    2.8416   -0.9146 O   0  0  0  0  0  0  0  0  0  0  0  0
    5.2219   -2.3285    0.2359 O   0  0  0  0  0  0  0  0  0  0  0  0
   -0.3532   -0.2186    1.0518 O   0  0  0  0  0  0  0  0  0  0  0  0
   -2.1280    1.2692    0.9350 N   0  0  0  0  0  0  0  0  0  0  0  0
   -0.3869    3.0901   -0.3618 N   0  0  0  0  0  0  0  0  0  0  0  0
   -5.2496   -2.0662   -1.1466 N   0  0  0  0  0  0  0  0  0  0  0  0
    1.3766    1.6968   -0.3045 C   0  0  0  0  0  0  0  0  0  0  0  0
    2.3676    0.6583   -0.1642 C   0  0  0  0  0  0  0  0  0  0  0  0
    0.0541    1.8519    0.0292 C   0  0  0  0  0  0  0  0  0  0  0  0
   -3.0944    0.4305    1.6071 C   0  0  0  0  0  0  0  0  0  0  0  0
   -3.8473   -0.4417    0.6447 C   0  0  0  0  0  0  0  0  0  0  0  0
   -0.7893    0.9011    0.6865 C   0  0  0  0  0  0  0  0  0  0  0  0
    3.5354    0.9018    0.5588 C   0  0  0  0  0  0  0  0  0  0  0  0
    2.1587   -0.5893   -0.7520 C   0  0  0  0  0  0  0  0  0  0  0  0
    4.2850   -1.3498    0.1063 C   0  0  0  0  0  0  0  0  0  0  0  0
    4.4940   -0.1022    0.6941 C   0  0  0  0  0  0  0  0  0  0  0  0
    3.1172   -1.5934   -0.6167 C   0  0  0  0  0  0  0  0  0  0  0  0
   -4.8469    0.1016   -0.1549 C   0  0  0  0  0  0  0  0  0  0  0  0
   -3.5481   -1.7963    0.5496 C   0  0  0  0  0  0  0  0  0  0  0  0
    0.6797    3.6261   -0.9109 C   0  0  0  0  0  0  0  0  0  0  0  0
   -5.5123   -0.7454   -1.0264 C   0  0  0  0  0  0  0  0  0  0  0  0
   -4.2717   -2.5585   -0.3534 C   0  0  0  0  0  0  0  0  0  0  0  0
    4.9454   -3.5792   -0.3930 C   0  0  0  0  0  0  0  0  0  0  0  0
   -3.7902    1.0874    2.1413 H   0  0  0  0  0  0  0  0  0  0  0  0
   -2.5796   -0.1742    2.3626 H   0  0  0  0  0  0  0  0  0  0  0  0
   -2.4416    2.1819    0.6168 H   0  0  0  0  0  0  0  0  0  0  0  0
    3.7136    1.8680    1.0250 H   0  0  0  0  0  0  0  0  0  0  0  0
    1.2569   -0.7947   -1.3243 H   0  0  0  0  0  0  0  0  0  0  0  0
    5.4018    0.0932    1.2585 H   0  0  0  0  0  0  0  0  0  0  0  0
    2.8918   -2.5380   -1.0997 H   0  0  0  0  0  0  0  0  0  0  0  0
   -5.1055    1.1538   -0.1059 H   0  0  0  0  0  0  0  0  0  0  0  0
   -2.7742   -2.2539    1.1562 H   0  0  0  0  0  0  0  0  0  0  0  0
    0.7792    4.6049   -1.3553 H   0  0  0  0  0  0  0  0  0  0  0  0
   -6.3001   -0.3710   -1.6717 H   0  0  0  0  0  0  0  0  0  0  0  0
   -4.0766   -3.6199   -0.4661 H   0  0  0  0  0  0  0  0  0  0  0  0
    5.7951   -4.2387   -0.1882 H   0  0  0  0  0  0  0  0  0  0  0  0
    4.8762   -3.4757   -1.4812 H   0  0  0  0  0  0  0  0  0  0  0  0
    4.0585   -4.0579    0.0359 H   0  0  0  0  0  0  0  0  0  0  0  0
  1  7  1  0  0  0  0
  1 20  1  0  0  0  0
  2 15  1  0  0  0  0
  2 23  1  0  0  0  0
  3 12  2  0  0  0  0
  4 10  1  0  0  0  0
  4 12  1  0  0  0  0
  4 26  1  0  0  0  0
  5  9  1  0  0  0  0
  5 20  2  0  0  0  0
  6 21  2  0  0  0  0
  6 22  1  0  0  0  0
  7  8  1  0  0  0  0
  7  9  2  0  0  0  0
  8 13  2  0  0  0  0
  8 14  1  0  0  0  0
  9 12  1  0  0  0  0
 10 11  1  0  0  0  0
 10 24  1  0  0  0  0
 10 25  1  0  0  0  0
 11 18  2  0  0  0  0
 11 19  1  0  0  0  0
 13 16  1  0  0  0  0
 13 27  1  0  0  0  0
 14 17  2  0  0  0  0
 14 28  1  0  0  0  0
 15 16  2  0  0  0  0
 15 17  1  0  0  0  0
 16 29  1  0  0  0  0
 17 30  1  0  0  0  0
 18 21  1  0  0  0  0
 18 31  1  0  0  0  0
 19 22  2  0  0  0  0
 19 32  1  0  0  0  0
 20 33  1  0  0  0  0
 21 34  1  0  0  0  0
 22 35  1  0  0  0  0
 23 36  1  0  0  0  0
 23 37  1  0  0  0  0
 23 38  1  0  0  0  0
M  END
> <PUBCHEM_COMPOUND_CID>
56643097

> <PUBCHEM_CONFORMER_RMSD>
0.8

> <PUBCHEM_CONFORMER_DIVERSEORDER>
1
35
3
19
36
23
9
34
21
33
25
16
5
4
30
24
2
12
8
6
22
29
7
27
17
10
26
18
14
13
11
15
32
28
31
20

> <PUBCHEM_MMFF94_PARTIAL_CHARGES>
33
1 -0.28
10 0.44
11 -0.14
12 0.72
13 -0.15
14 -0.15
15 0.08
16 -0.15
17 -0.15
18 -0.15
19 -0.15
2 -0.36
20 0.33
21 0.16
22 0.16
23 0.28
26 0.37
27 0.15
28 0.15
29 0.15
3 -0.57
30 0.15
31 0.15
32 0.15
33 0.15
34 0.15
35 0.15
4 -0.73
5 -0.57
6 -0.62
7 0.09
8 0.05
9 0.14

> <PUBCHEM_EFFECTIVE_ROTOR_COUNT>
6

> <PUBCHEM_PHARMACOPHORE_FEATURES>
7
1 2 acceptor
1 3 acceptor
1 4 donor
1 6 acceptor
5 1 5 7 9 20 rings
6 6 11 18 19 21 22 rings
6 8 13 14 15 16 17 rings

> <PUBCHEM_HEAVY_ATOM_COUNT>
23

> <PUBCHEM_ATOM_DEF_STEREO_COUNT>
0

> <PUBCHEM_ATOM_UDEF_STEREO_COUNT>
0

> <PUBCHEM_BOND_DEF_STEREO_COUNT>
0

> <PUBCHEM_BOND_UDEF_STEREO_COUNT>
0

> <PUBCHEM_ISOTOPIC_ATOM_COUNT>
0

> <PUBCHEM_COMPONENT_COUNT>
1

> <PUBCHEM_CACTVS_TAUTO_COUNT>
2

> <PUBCHEM_CONFORMER_ID>
03604E1900000001

> <PUBCHEM_MMFF94_ENERGY>
58.0776

> <PUBCHEM_FEATURE_SELFOVERLAP>
35.522

> <PUBCHEM_SHAPE_FINGERPRINT>
10042902 136 18200893785346576478
10622 236 18129647729790980263
11552529 35 18055918693268001720
12107183 9 18341061705536449049
12363563 72 18261125044953120832
12422481 6 17489024847219504030
12553582 1 18191331353746056792
12623949 98 17917157113471111270
13583140 156 15697144128687445121
13885169 86 10231170672718420034
13899415 180 18186794794666673277
1454969 45 18337392747130498204
14681488 357 17701839703832302846
14848178 5 18342734135187990395
15352361 1 18410856551108124111
15420108 30 17620763782479752001
15842332 3 18055946361547984577
17349148 13 18201728387533423739
17492 89 18265621064285370051
17539 30 18044654196404501284
17857418 61 18342739589680554794
18222031 100 18409449185252270992
19141452 34 18197507224887295409
20028762 73 18130503046673960486
20626108 58 18340763827398704705
20645477 70 18115311223134352329
21344244 181 17617929241403086205
21503847 285 7997428125520901849
22393880 68 17750218366168184867
23559900 14 18340195397647294785
23572383 38 18410285951855203531
2838139 119 11242268371924346586
312425 54 17845937312448338266
314194 84 18337965561895506112
339767 52 18342166800057233075
4280585 95 18335975393998757826
439807 62 18055344993692576815
46194498 28 16445056329346852023
463206 1 18259708878134869691
5207 123 18408884023052919725
59682541 52 18263632035197637671
613672 6 18187086156905876706
6442390 28 10447926191562391748
76465 3 18411982425455938770
7970288 3 18410291380741701950
88748 71 18337680831650511883
9709674 26 18189903200280399475
9971528 1 18409164441425815432

> <PUBCHEM_SHAPE_MULTIPOLES>
440.78
12.45
3.91
1.11
5.2
0.68
-0.11
-12.78
1.13
-2.87
1.33
0.74
0.12
-0.71

> <PUBCHEM_SHAPE_SELFOVERLAP>
959.4

> <PUBCHEM_SHAPE_VOLUME>
240.3

> <PUBCHEM_COORDINATE_TYPE>
2
5
10

$$$$
