44440259
  -OEChem-10062121573D

 53 57  0     0  0  0  0  0  0999 V2000
   -1.6803   -1.6746    0.8362 S   0  0  0  0  0  0  0  0  0  0  0  0
    8.1541   -0.9257   -0.2393 O   0  0  0  0  0  0  0  0  0  0  0  0
    6.2601   -3.4251   -0.9055 O   0  0  0  0  0  0  0  0  0  0  0  0
    7.5489   -3.4421    1.0283 O   0  0  0  0  0  0  0  0  0  0  0  0
   -7.2792    0.2819   -0.0250 O   0  0  0  0  0  0  0  0  0  0  0  0
    1.5284    3.4208   -0.1118 N   0  0  0  0  0  0  0  0  0  0  0  0
    0.3082    2.8570    0.0814 N   0  0  0  0  0  0  0  0  0  0  0  0
    5.7917   -0.8135   -0.0323 N   0  0  0  0  0  0  0  0  0  0  0  0
    2.9189    0.1545    0.1424 C   0  0  0  0  0  0  0  0  0  0  0  0
    1.9370    1.2744    0.1068 C   0  0  0  0  0  0  0  0  0  0  0  0
    4.1857    1.0009   -0.0894 C   0  0  0  0  0  0  0  0  0  0  0  0
    2.5078    2.4988   -0.1005 C   0  0  0  0  0  0  0  0  0  0  0  0
    3.9167    2.3914   -0.2310 C   0  0  0  0  0  0  0  0  0  0  0  0
    0.5722    1.5430    0.2140 C   0  0  0  0  0  0  0  0  0  0  0  0
    5.4878    0.5400   -0.1661 C   0  0  0  0  0  0  0  0  0  0  0  0
    4.9062    3.3244   -0.4451 C   0  0  0  0  0  0  0  0  0  0  0  0
   -0.4497    0.5455    0.4406 C   0  0  0  0  0  0  0  0  0  0  0  0
    6.5050    1.4764   -0.3833 C   0  0  0  0  0  0  0  0  0  0  0  0
    6.2175    2.8498   -0.5207 C   0  0  0  0  0  0  0  0  0  0  0  0
   -1.8326    0.8732    0.5425 C   0  0  0  0  0  0  0  0  0  0  0  0
   -0.2264   -0.8063    0.5820 C   0  0  0  0  0  0  0  0  0  0  0  0
   -2.6136   -0.2411    0.7574 C   0  0  0  0  0  0  0  0  0  0  0  0
    7.0461   -1.4119   -0.0870 C   0  0  0  0  0  0  0  0  0  0  0  0
    6.9838   -2.8979    0.1001 C   0  0  0  0  0  0  0  0  0  0  0  0
   -4.0309   -0.2278    0.9006 C   0  0  0  0  0  0  0  0  0  0  0  0
   -5.2261   -0.2163    1.0206 C   0  0  0  0  0  0  0  0  0  0  0  0
   -6.6808   -0.2029    1.1686 C   0  0  0  0  0  0  0  0  0  0  0  0
    6.1351   -4.8497   -0.8800 C   0  0  0  0  0  0  0  0  0  0  0  0
   -8.5363   -0.1798   -0.3187 C   0  0  0  0  0  0  0  0  0  0  0  0
   -9.4081   -0.5324    0.7115 C   0  0  0  0  0  0  0  0  0  0  0  0
   -8.9435   -0.2969   -1.6476 C   0  0  0  0  0  0  0  0  0  0  0  0
  -10.6872   -1.0023    0.4127 C   0  0  0  0  0  0  0  0  0  0  0  0
  -10.2223   -0.7665   -1.9464 C   0  0  0  0  0  0  0  0  0  0  0  0
  -11.0942   -1.1193   -0.9162 C   0  0  0  0  0  0  0  0  0  0  0  0
    2.7688   -0.5525   -0.6772 H   0  0  0  0  0  0  0  0  0  0  0  0
    2.9520   -0.3347    1.1191 H   0  0  0  0  0  0  0  0  0  0  0  0
    1.5860    4.4241   -0.2391 H   0  0  0  0  0  0  0  0  0  0  0  0
    4.6885    4.3806   -0.5512 H   0  0  0  0  0  0  0  0  0  0  0  0
    7.5519    1.2099   -0.4587 H   0  0  0  0  0  0  0  0  0  0  0  0
    7.0317    3.5504   -0.6890 H   0  0  0  0  0  0  0  0  0  0  0  0
    4.9981   -1.4316    0.1200 H   0  0  0  0  0  0  0  0  0  0  0  0
   -2.2437    1.8734    0.4630 H   0  0  0  0  0  0  0  0  0  0  0  0
    0.7034   -1.3546    0.5532 H   0  0  0  0  0  0  0  0  0  0  0  0
   -6.9967   -1.2295    1.3947 H   0  0  0  0  0  0  0  0  0  0  0  0
   -6.9632    0.4504    2.0018 H   0  0  0  0  0  0  0  0  0  0  0  0
    5.5324   -5.1541   -1.7399 H   0  0  0  0  0  0  0  0  0  0  0  0
    5.6276   -5.1692    0.0353 H   0  0  0  0  0  0  0  0  0  0  0  0
    7.1208   -5.3184   -0.9583 H   0  0  0  0  0  0  0  0  0  0  0  0
   -9.1410   -0.4305    1.7591 H   0  0  0  0  0  0  0  0  0  0  0  0
   -8.2685   -0.0238   -2.4541 H   0  0  0  0  0  0  0  0  0  0  0  0
  -11.3687   -1.2710    1.2146 H   0  0  0  0  0  0  0  0  0  0  0  0
  -10.5394   -0.8574   -2.9812 H   0  0  0  0  0  0  0  0  0  0  0  0
  -12.0906   -1.4835   -1.1489 H   0  0  0  0  0  0  0  0  0  0  0  0
  1 21  1  0  0  0  0
  1 22  1  0  0  0  0
  2 23  2  0  0  0  0
  3 24  1  0  0  0  0
  3 28  1  0  0  0  0
  4 24  2  0  0  0  0
  5 27  1  0  0  0  0
  5 29  1  0  0  0  0
  6  7  1  0  0  0  0
  6 12  1  0  0  0  0
  6 37  1  0  0  0  0
  7 14  2  0  0  0  0
  8 15  1  0  0  0  0
  8 23  1  0  0  0  0
  8 41  1  0  0  0  0
  9 10  1  0  0  0  0
  9 11  1  0  0  0  0
  9 35  1  0  0  0  0
  9 36  1  0  0  0  0
 10 12  2  0  0  0  0
 10 14  1  0  0  0  0
 11 13  2  0  0  0  0
 11 15  1  0  0  0  0
 12 13  1  0  0  0  0
 13 16  1  0  0  0  0
 14 17  1  0  0  0  0
 15 18  2  0  0  0  0
 16 19  2  0  0  0  0
 16 38  1  0  0  0  0
 17 20  1  0  0  0  0
 17 21  2  0  0  0  0
 18 19  1  0  0  0  0
 18 39  1  0  0  0  0
 19 40  1  0  0  0  0
 20 22  2  0  0  0  0
 20 42  1  0  0  0  0
 21 43  1  0  0  0  0
 22 25  1  0  0  0  0
 23 24  1  0  0  0  0
 25 26  3  0  0  0  0
 26 27  1  0  0  0  0
 27 44  1  0  0  0  0
 27 45  1  0  0  0  0
 28 46  1  0  0  0  0
 28 47  1  0  0  0  0
 28 48  1  0  0  0  0
 29 30  2  0  0  0  0
 29 31  1  0  0  0  0
 30 32  1  0  0  0  0
 30 49  1  0  0  0  0
 31 33  2  0  0  0  0
 31 50  1  0  0  0  0
 32 34  2  0  0  0  0
 32 51  1  0  0  0  0
 33 34  1  0  0  0  0
 33 52  1  0  0  0  0
 34 53  1  0  0  0  0
M  END
> <PUBCHEM_COMPOUND_CID>
44440259

> <PUBCHEM_CONFORMER_RMSD>
1

> <PUBCHEM_CONFORMER_DIVERSEORDER>
1
69
49
30
45
61
29
66
72
20
60
21
68
9
6
55
12
4
75
25
31
28
50
42
71
32
70
2
3
57
43
41
24
76
73
14
10
18
26
27
19
74
62
78
44
67
58
17
23
40
22
36
37
33
65
53
15
56
51
52
35
16
8
63
77
46
39
5
34
11
59
54
47
38
64
13
48
7

> <PUBCHEM_MMFF94_PARTIAL_CHARGES>
45
1 -0.08
10 -0.18
11 -0.14
12 -0.2
13 0.05
14 0.29
15 0.12
16 -0.15
18 -0.15
19 -0.15
2 -0.57
20 -0.15
21 -0.11
22 0.06
23 0.63
24 0.72
25 -0.02
26 -0.2
27 0.48
28 0.28
29 0.08
3 -0.43
30 -0.15
31 -0.15
32 -0.15
33 -0.15
34 -0.15
37 0.27
38 0.15
39 0.15
4 -0.57
40 0.15
41 0.37
42 0.15
43 0.15
49 0.15
5 -0.36
50 0.15
51 0.15
52 0.15
53 0.15
6 0.3
7 -0.71
8 -0.55
9 0.32

> <PUBCHEM_EFFECTIVE_ROTOR_COUNT>
7.2

> <PUBCHEM_PHARMACOPHORE_FEATURES>
11
1 2 acceptor
1 4 acceptor
1 5 acceptor
1 6 donor
1 7 acceptor
1 8 donor
5 1 17 20 21 22 rings
5 6 7 10 12 14 rings
5 9 10 11 12 13 rings
6 11 13 15 16 18 19 rings
6 29 30 31 32 33 34 rings

> <PUBCHEM_HEAVY_ATOM_COUNT>
34

> <PUBCHEM_ATOM_DEF_STEREO_COUNT>
0

> <PUBCHEM_ATOM_UDEF_STEREO_COUNT>
0

> <PUBCHEM_BOND_DEF_STEREO_COUNT>
0

> <PUBCHEM_BOND_UDEF_STEREO_COUNT>
0

> <PUBCHEM_ISOTOPIC_ATOM_COUNT>
0

> <PUBCHEM_COMPONENT_COUNT>
1

> <PUBCHEM_CACTVS_TAUTO_COUNT>
4

> <PUBCHEM_CONFORMER_ID>
02A61AC300000001

> <PUBCHEM_MMFF94_ENERGY>
99.5524

> <PUBCHEM_FEATURE_SELFOVERLAP>
56.164

> <PUBCHEM_SHAPE_FINGERPRINT>
10533779 47 18188507843021179491
10666366 153 17603866702515876535
11374522 175 18336827477019751874
11409948 41 18342452617378073919
117089 54 18051706452060542502
11828042 291 18190438551080620783
11966995 16 17967817111599882606
12089408 11 18060706109256915521
12539765 74 12251901482117576065
13150687 139 18186518826771855883
14117953 113 18342466932799275734
14202775 3 18334582387142339267
14216079 64 18409732837809101330
14400156 413 18336826519258271868
14617042 71 8862938386186985555
150020 25 17894346688469932723
15152005 1 17910399382069523022
15198563 99 17095519553240388517
15289351 153 18260259747004416945
15392192 104 16343986906061869820
15510794 2 17967536817664455059
15554971 5 17989496216903263537
18335252 114 18335416911481380089
19315958 150 18261678198076064456
20156587 128 18201996613786246637
20771845 140 16630528406272362102
21133410 58 18334295392462707522
21792934 111 18336539508643009016
21792938 131 17676757679270914322
21895431 317 18202001002388930655
23524908 199 18407754838060552765
2835820 82 18339082584200659634
335352 9 18409173229018469708
437795 160 16272207488560896467
474113 269 18341895164670898603
4874694 18 18337390547779799184
5028188 123 14201407118354864969
57359948 33 17458631159742562332
59682541 35 12175623988722569873
6081469 158 18040434391204349709
9663363 56 18260263071620223320

> <PUBCHEM_SHAPE_MULTIPOLES>
665.13
37.37
4.12
1.11
94.51
2.78
-0.25
22.29
-10.89
-16.18
-0.9
2.53
0.39
-0.44

> <PUBCHEM_SHAPE_SELFOVERLAP>
1462.505

> <PUBCHEM_SHAPE_VOLUME>
360.6

> <PUBCHEM_COORDINATE_TYPE>
2
5
10

$$$$
