10905857
  -OEChem-10052115143D

 53 56  0     0  0  0  0  0  0999 V2000
    3.2257   -1.3327    1.8092 O   0  0  0  0  0  0  0  0  0  0  0  0
   -4.4272    2.9136    0.5241 O   0  0  0  0  0  0  0  0  0  0  0  0
   -6.9373    1.9505   -0.1782 O   0  0  0  0  0  0  0  0  0  0  0  0
   -1.2909   -1.0721    0.1387 N   0  0  0  0  0  0  0  0  0  0  0  0
    1.3727   -0.4129    0.7833 N   0  0  0  0  0  0  0  0  0  0  0  0
   -2.7596   -2.8082   -0.5566 N   0  0  0  0  0  0  0  0  0  0  0  0
    3.4932   -0.2707   -0.2363 N   0  0  0  0  0  0  0  0  0  0  0  0
   -5.1088   -2.3886   -0.8918 N   0  0  0  0  0  0  0  0  0  0  0  0
   10.1270    1.1960   -0.3837 N   0  0  0  0  0  0  0  0  0  0  0  0
   -0.6361   -1.7293    1.2833 C   0  0  0  0  0  0  0  0  0  0  0  0
   -0.4009   -0.5443   -0.9069 C   0  0  0  0  0  0  0  0  0  0  0  0
    0.4733   -0.8439    1.8516 C   0  0  0  0  0  0  0  0  0  0  0  0
    0.6869    0.3259   -0.2815 C   0  0  0  0  0  0  0  0  0  0  0  0
   -2.5795   -1.4987   -0.2050 C   0  0  0  0  0  0  0  0  0  0  0  0
    2.7480   -0.7104    0.8571 C   0  0  0  0  0  0  0  0  0  0  0  0
   -3.6728   -0.6002   -0.1903 C   0  0  0  0  0  0  0  0  0  0  0  0
   -4.9358   -1.1004   -0.5469 C   0  0  0  0  0  0  0  0  0  0  0  0
   -3.5041    0.7484    0.1686 C   0  0  0  0  0  0  0  0  0  0  0  0
   -6.0125   -0.2170   -0.5328 C   0  0  0  0  0  0  0  0  0  0  0  0
   -4.5974    1.6091    0.1742 C   0  0  0  0  0  0  0  0  0  0  0  0
   -4.0115   -3.1722   -0.8783 C   0  0  0  0  0  0  0  0  0  0  0  0
   -5.8528    1.1255   -0.1770 C   0  0  0  0  0  0  0  0  0  0  0  0
    4.8767    0.0346   -0.2663 C   0  0  0  0  0  0  0  0  0  0  0  0
    5.4856    0.3712   -1.4729 C   0  0  0  0  0  0  0  0  0  0  0  0
    5.6211   -0.0029    0.9102 C   0  0  0  0  0  0  0  0  0  0  0  0
    6.8472    0.6721   -1.5031 C   0  0  0  0  0  0  0  0  0  0  0  0
    6.9828    0.2981    0.8798 C   0  0  0  0  0  0  0  0  0  0  0  0
    7.5958    0.6355   -0.3269 C   0  0  0  0  0  0  0  0  0  0  0  0
   -4.1205    3.8321   -0.5236 C   0  0  0  0  0  0  0  0  0  0  0  0
   -7.6788    2.0474    1.0361 C   0  0  0  0  0  0  0  0  0  0  0  0
    8.9907    0.9444   -0.3583 C   0  0  0  0  0  0  0  0  0  0  0  0
   -0.2175   -2.6885    0.9539 H   0  0  0  0  0  0  0  0  0  0  0  0
   -1.3649   -1.9358    2.0764 H   0  0  0  0  0  0  0  0  0  0  0  0
    0.0504   -1.3830   -1.4511 H   0  0  0  0  0  0  0  0  0  0  0  0
   -0.9665    0.0562   -1.6291 H   0  0  0  0  0  0  0  0  0  0  0  0
    0.0479    0.0592    2.3059 H   0  0  0  0  0  0  0  0  0  0  0  0
    1.0132   -1.3833    2.6357 H   0  0  0  0  0  0  0  0  0  0  0  0
    1.3630    0.6940   -1.0533 H   0  0  0  0  0  0  0  0  0  0  0  0
    0.2372    1.2115    0.1853 H   0  0  0  0  0  0  0  0  0  0  0  0
   -2.5319    1.1447    0.4515 H   0  0  0  0  0  0  0  0  0  0  0  0
    3.0221   -0.1767   -1.1294 H   0  0  0  0  0  0  0  0  0  0  0  0
   -7.0031   -0.5778   -0.8057 H   0  0  0  0  0  0  0  0  0  0  0  0
   -4.1573   -4.2086   -1.1571 H   0  0  0  0  0  0  0  0  0  0  0  0
    4.9132    0.4033   -2.3963 H   0  0  0  0  0  0  0  0  0  0  0  0
    5.1954   -0.2243    1.8811 H   0  0  0  0  0  0  0  0  0  0  0  0
    7.3108    0.9335   -2.4515 H   0  0  0  0  0  0  0  0  0  0  0  0
    7.5524    0.2728    1.8059 H   0  0  0  0  0  0  0  0  0  0  0  0
   -3.1739    3.5637   -1.0033 H   0  0  0  0  0  0  0  0  0  0  0  0
   -4.0211    4.8294   -0.0866 H   0  0  0  0  0  0  0  0  0  0  0  0
   -4.9253    3.8533   -1.2652 H   0  0  0  0  0  0  0  0  0  0  0  0
   -8.0920    1.0720    1.3120 H   0  0  0  0  0  0  0  0  0  0  0  0
   -8.5056    2.7453    0.8778 H   0  0  0  0  0  0  0  0  0  0  0  0
   -7.0474    2.4305    1.8440 H   0  0  0  0  0  0  0  0  0  0  0  0
  1 15  2  0  0  0  0
  2 20  1  0  0  0  0
  2 29  1  0  0  0  0
  3 22  1  0  0  0  0
  3 30  1  0  0  0  0
  4 10  1  0  0  0  0
  4 11  1  0  0  0  0
  4 14  1  0  0  0  0
  5 12  1  0  0  0  0
  5 13  1  0  0  0  0
  5 15  1  0  0  0  0
  6 14  2  0  0  0  0
  6 21  1  0  0  0  0
  7 15  1  0  0  0  0
  7 23  1  0  0  0  0
  7 41  1  0  0  0  0
  8 17  1  0  0  0  0
  8 21  2  0  0  0  0
  9 31  3  0  0  0  0
 10 12  1  0  0  0  0
 10 32  1  0  0  0  0
 10 33  1  0  0  0  0
 11 13  1  0  0  0  0
 11 34  1  0  0  0  0
 11 35  1  0  0  0  0
 12 36  1  0  0  0  0
 12 37  1  0  0  0  0
 13 38  1  0  0  0  0
 13 39  1  0  0  0  0
 14 16  1  0  0  0  0
 16 17  1  0  0  0  0
 16 18  2  0  0  0  0
 17 19  2  0  0  0  0
 18 20  1  0  0  0  0
 18 40  1  0  0  0  0
 19 22  1  0  0  0  0
 19 42  1  0  0  0  0
 20 22  2  0  0  0  0
 21 43  1  0  0  0  0
 23 24  2  0  0  0  0
 23 25  1  0  0  0  0
 24 26  1  0  0  0  0
 24 44  1  0  0  0  0
 25 27  2  0  0  0  0
 25 45  1  0  0  0  0
 26 28  2  0  0  0  0
 26 46  1  0  0  0  0
 27 28  1  0  0  0  0
 27 47  1  0  0  0  0
 28 31  1  0  0  0  0
 29 48  1  0  0  0  0
 29 49  1  0  0  0  0
 29 50  1  0  0  0  0
 30 51  1  0  0  0  0
 30 52  1  0  0  0  0
 30 53  1  0  0  0  0
M  END
> <PUBCHEM_COMPOUND_CID>
10905857

> <PUBCHEM_CONFORMER_RMSD>
1

> <PUBCHEM_CONFORMER_DIVERSEORDER>
1
10
21
36
7
6
32
29
42
9
49
48
40
33
15
44
17
11
31
37
30
8
39
5
27
24
35
23
20
28
12
13
18
14
22
34
26
41
38
3
46
47
4
45
19
25
16
2
43

> <PUBCHEM_MMFF94_PARTIAL_CHARGES>
38
1 -0.57
10 0.37
11 0.37
12 0.3
13 0.3
14 0.41
15 0.69
17 0.31
18 -0.15
19 -0.15
2 -0.36
20 0.08
21 0.47
22 0.08
23 0.12
24 -0.15
25 -0.15
26 -0.15
27 -0.15
28 0.07
29 0.28
3 -0.36
30 0.28
31 0.48
4 -0.84
40 0.15
41 0.37
42 0.15
43 0.15
44 0.15
45 0.15
46 0.15
47 0.15
5 -0.66
6 -0.62
7 -0.55
8 -0.62
9 -0.56

> <PUBCHEM_EFFECTIVE_ROTOR_COUNT>
7.2

> <PUBCHEM_PHARMACOPHORE_FEATURES>
11
1 1 acceptor
1 2 acceptor
1 3 acceptor
1 7 donor
1 9 acceptor
3 4 6 14 cation
3 6 8 21 cation
6 16 17 18 19 20 22 rings
6 23 24 25 26 27 28 rings
6 4 5 10 11 12 13 rings
6 6 8 14 16 17 21 rings

> <PUBCHEM_HEAVY_ATOM_COUNT>
31

> <PUBCHEM_ATOM_DEF_STEREO_COUNT>
0

> <PUBCHEM_ATOM_UDEF_STEREO_COUNT>
0

> <PUBCHEM_BOND_DEF_STEREO_COUNT>
0

> <PUBCHEM_BOND_UDEF_STEREO_COUNT>
0

> <PUBCHEM_ISOTOPIC_ATOM_COUNT>
0

> <PUBCHEM_COMPONENT_COUNT>
1

> <PUBCHEM_CACTVS_TAUTO_COUNT>
2

> <PUBCHEM_CONFORMER_ID>
00A6690100000001

> <PUBCHEM_MMFF94_ENERGY>
127.4656

> <PUBCHEM_FEATURE_SELFOVERLAP>
55.985

> <PUBCHEM_SHAPE_FINGERPRINT>
10 15 13190344582367709578
10087517 78 18333730208498057621
10165383 225 18131636652405110057
10411042 1 17980757462143616287
10454371 7 18342461439172230336
10670039 82 18411131450954050381
10906281 52 17749399174091957946
11135926 11 16877654678407561498
11181472 205 18333736806870388948
11273773 42 18113898268861428146
11315181 36 18187079594338357031
12082328 90 18413106191128474310
12236239 1 18114177536267263419
12838863 1 10809644635988217793
13690498 29 18058723753478625319
13726171 33 18122629354156190337
13885169 127 18413108377414176526
14294032 229 18187077313900997596
14856354 85 18339641247792407919
150020 25 17704355485832298240
15183329 4 18131071515590732834
15198563 99 16343433817032276672
15419008 47 17418089936231682840
15419008 91 17560221631548954536
15604295 49 18199462333494345568
1577012 14 18187078456208895026
16989713 51 17559949008073125503
16992828 155 17823408306553549357
17913733 40 14851601059849795504
20505436 4 18261670386174177347
20609170 92 17918004858574279206
20771845 165 18128544773482693231
21033648 29 17274522304867168787
21095123 145 12901551247851983674
21756936 100 18113340821378363211
21792961 116 17203615878651034526
23081809 10 18186512220700574322
23522609 53 18040729047752631788
23559900 14 17846208994814990331
23576562 1 16701435992705067681
255183 313 14490481897397532593
335352 9 18342450449120657085
4073 2 18260269655257053186
4098825 35 18339924819076889294
44555599 121 17968384537151637972
445580 204 18334013891472605768
445580 37 18412829088238235152
44802255 64 18060418023497686599
44880568 143 18060137686681956184
4516262 110 18041269972997428439
5265222 85 18058446689343500758
57527295 17 16056603085170857759
5758199 1 17894347783322733186
5911458 16 18113343002973959396
59567204 34 18412262826849710997
6201320 215 18341324480241760408
636775 72 18335421301165160644
68570916 9 9367336055790193122

> <PUBCHEM_SHAPE_MULTIPOLES>
590.47
26.38
2.9
1.29
46.47
0.79
0.26
15.34
-3.86
-7.83
-0.38
0.99
-0.31
-2.19

> <PUBCHEM_SHAPE_SELFOVERLAP>
1277.45

> <PUBCHEM_SHAPE_VOLUME>
318.3

> <PUBCHEM_COORDINATE_TYPE>
2
5
10

$$$$
