24905166
  -OEChem-10052115143D

 38 40  0     0  0  0  0  0  0999 V2000
   -2.6693    0.8565    0.0000 N   0  0  0  0  0  0  0  0  0  0  0  0
   -1.4381    1.4004    0.0000 N   0  0  0  0  0  0  0  0  0  0  0  0
   -3.7318   -1.3192    0.0000 N   0  0  0  0  0  0  0  0  0  0  0  0
   -2.0909   -3.1243    0.0000 N   0  0  0  0  0  0  0  0  0  0  0  0
    0.2628   -2.7278    0.0009 N   0  0  0  0  0  0  0  0  0  0  0  0
    6.3583   -1.1987    0.0000 N   0  0  0  0  0  0  0  0  0  0  0  0
   -3.8280    1.7177    0.0002 C   0  0  0  0  0  0  0  0  0  0  0  0
   -2.6630   -0.5068   -0.0001 C   0  0  0  0  0  0  0  0  0  0  0  0
   -1.3311   -0.8826   -0.0001 C   0  0  0  0  0  0  0  0  0  0  0  0
   -0.6277    0.3363   -0.0002 C   0  0  0  0  0  0  0  0  0  0  0  0
   -3.8856    2.5842   -1.2604 C   0  0  0  0  0  0  0  0  0  0  0  0
   -3.8851    2.5844    1.2606 C   0  0  0  0  0  0  0  0  0  0  0  0
    0.8012    0.5243   -0.0005 C   0  0  0  0  0  0  0  0  0  0  0  0
   -1.0590   -2.2466   -0.0001 C   0  0  0  0  0  0  0  0  0  0  0  0
    1.4930    0.6155   -1.2084 C   0  0  0  0  0  0  0  0  0  0  0  0
    1.4924    0.6164    1.2075 C   0  0  0  0  0  0  0  0  0  0  0  0
    3.5668    0.8906    0.0000 C   0  0  0  0  0  0  0  0  0  0  0  0
    2.8757    0.7987   -1.2082 C   0  0  0  0  0  0  0  0  0  0  0  0
    2.8751    0.7995    1.2079 C   0  0  0  0  0  0  0  0  0  0  0  0
   -3.3453   -2.6133    0.0000 C   0  0  0  0  0  0  0  0  0  0  0  0
    5.0454    1.0852    0.0003 C   0  0  0  0  0  0  0  0  0  0  0  0
    5.7841   -0.1903    0.0005 C   0  0  0  0  0  0  0  0  0  0  0  0
   -4.7148    1.0724    0.0004 H   0  0  0  0  0  0  0  0  0  0  0  0
   -3.0449    3.2853   -1.3091 H   0  0  0  0  0  0  0  0  0  0  0  0
   -4.8119    3.1678   -1.2861 H   0  0  0  0  0  0  0  0  0  0  0  0
   -3.8531    1.9628   -2.1622 H   0  0  0  0  0  0  0  0  0  0  0  0
   -4.8115    3.1680    1.2866 H   0  0  0  0  0  0  0  0  0  0  0  0
   -3.0445    3.2856    1.3089 H   0  0  0  0  0  0  0  0  0  0  0  0
   -3.8522    1.9632    2.1625 H   0  0  0  0  0  0  0  0  0  0  0  0
    0.9689    0.5450   -2.1587 H   0  0  0  0  0  0  0  0  0  0  0  0
    0.9680    0.5467    2.1577 H   0  0  0  0  0  0  0  0  0  0  0  0
    3.4028    0.8665   -2.1563 H   0  0  0  0  0  0  0  0  0  0  0  0
    3.4017    0.8680    2.1561 H   0  0  0  0  0  0  0  0  0  0  0  0
   -4.1476   -3.3434   -0.0001 H   0  0  0  0  0  0  0  0  0  0  0  0
    1.0517   -2.0982    0.0021 H   0  0  0  0  0  0  0  0  0  0  0  0
    0.4162   -3.7274    0.0019 H   0  0  0  0  0  0  0  0  0  0  0  0
    5.3421    1.6812    0.8726 H   0  0  0  0  0  0  0  0  0  0  0  0
    5.3424    1.6812   -0.8718 H   0  0  0  0  0  0  0  0  0  0  0  0
  1  2  1  0  0  0  0
  1  7  1  0  0  0  0
  1  8  1  0  0  0  0
  2 10  2  0  0  0  0
  3  8  2  0  0  0  0
  3 20  1  0  0  0  0
  4 14  1  0  0  0  0
  4 20  2  0  0  0  0
  5 14  1  0  0  0  0
  5 35  1  0  0  0  0
  5 36  1  0  0  0  0
  6 22  3  0  0  0  0
  7 11  1  0  0  0  0
  7 12  1  0  0  0  0
  7 23  1  0  0  0  0
  8  9  1  0  0  0  0
  9 10  1  0  0  0  0
  9 14  2  0  0  0  0
 10 13  1  0  0  0  0
 11 24  1  0  0  0  0
 11 25  1  0  0  0  0
 11 26  1  0  0  0  0
 12 27  1  0  0  0  0
 12 28  1  0  0  0  0
 12 29  1  0  0  0  0
 13 15  2  0  0  0  0
 13 16  1  0  0  0  0
 15 18  1  0  0  0  0
 15 30  1  0  0  0  0
 16 19  2  0  0  0  0
 16 31  1  0  0  0  0
 17 18  2  0  0  0  0
 17 19  1  0  0  0  0
 17 21  1  0  0  0  0
 18 32  1  0  0  0  0
 19 33  1  0  0  0  0
 20 34  1  0  0  0  0
 21 22  1  0  0  0  0
 21 37  1  0  0  0  0
 21 38  1  0  0  0  0
M  END
> <PUBCHEM_COMPOUND_CID>
24905166

> <PUBCHEM_CONFORMER_RMSD>
0.6

> <PUBCHEM_CONFORMER_DIVERSEORDER>
1
6
3
9
8
7
10
5
4
2
12
11

> <PUBCHEM_MMFF94_PARTIAL_CHARGES>
26
1 0.31
10 0.23
13 0.05
14 0.41
15 -0.15
16 -0.15
17 -0.14
18 -0.15
19 -0.15
2 -0.71
20 0.47
21 0.34
22 0.36
3 -0.57
30 0.15
31 0.15
32 0.15
33 0.15
34 0.15
35 0.4
36 0.4
4 -0.62
5 -0.9
6 -0.56
7 0.26
8 0.11

> <PUBCHEM_EFFECTIVE_ROTOR_COUNT>
3

> <PUBCHEM_PHARMACOPHORE_FEATURES>
10
1 2 acceptor
1 5 cation
1 5 donor
1 6 acceptor
3 1 3 8 cation
3 3 4 20 cation
3 7 11 12 hydrophobe
5 1 2 8 9 10 rings
6 13 15 16 17 18 19 rings
6 3 4 8 9 14 20 rings

> <PUBCHEM_HEAVY_ATOM_COUNT>
22

> <PUBCHEM_ATOM_DEF_STEREO_COUNT>
0

> <PUBCHEM_ATOM_UDEF_STEREO_COUNT>
0

> <PUBCHEM_BOND_DEF_STEREO_COUNT>
0

> <PUBCHEM_BOND_UDEF_STEREO_COUNT>
0

> <PUBCHEM_ISOTOPIC_ATOM_COUNT>
0

> <PUBCHEM_COMPONENT_COUNT>
1

> <PUBCHEM_CACTVS_TAUTO_COUNT>
5

> <PUBCHEM_CONFORMER_ID>
017C05CE00000001

> <PUBCHEM_MMFF94_ENERGY>
48.8212

> <PUBCHEM_FEATURE_SELFOVERLAP>
51.025

> <PUBCHEM_SHAPE_FINGERPRINT>
10165383 225 18340210670499005337
10319926 262 18270947038860291328
10411042 1 17834114530467163143
105312 117 18187918418451852533
10595046 47 18191028005329446580
10835480 77 18272644663465672336
1100329 8 16975914454699512688
11315181 36 18188488090377140500
11405975 8 18413389852290991704
11545043 162 18272367598860685800
11796584 16 18341896260737099518
12107183 9 18264205808331539944
12236239 1 17749105642487562332
12293681 4 17917999347456394664
12403259 226 18055911249862635667
12500047 106 18411976962220777324
12643181 29 18340206277195711470
12788726 201 18120672476275210455
13140716 1 18193844730691721659
13167823 11 18334574685616227466
13583140 156 17845925347165115256
13862211 1 18195529427340332655
14420673 8 18337393717635228218
14508225 48 18123174969446563557
14790565 3 17693385438302913616
15042514 8 18192716872137912739
16752209 62 18336814407718249203
16945 1 18338516469140541159
17844677 252 18340211903159640544
19141452 34 18334858290849140404
20510252 161 18271246148545340537
21065198 57 18342454893968852568
21065201 7 18338506538922867792
21279426 13 18270686359941303550
23402539 116 18342734109444748964
23557571 272 18201163242598883204
23559900 14 18272938185672037236
23598291 2 17677337241783354340
25147074 1 18338220571595312795
2748010 2 18265344915331473663
312423 11 17823147893784571268
350125 39 18410293575938904011
4214541 1 18410856577289365024
5104073 3 18412542137494837936
5265222 85 18198354038694437342
559249 180 18336261263381035938
573450 72 18335134323944089856
59755656 215 18411417302318124903
59755656 520 18341892949085283653
7226269 152 17917151598469300528
77492 1 17604142735225892580
7970288 3 17833550476311865250
81228 2 18266182927748604897
9709674 26 18271815643939438630
9862522 239 17895746301778422733

> <PUBCHEM_SHAPE_MULTIPOLES>
422.86
10.87
3.08
1.03
14.44
1.7
0
-2.22
0
-4.71
0
0.02
-0.59
0

> <PUBCHEM_SHAPE_SELFOVERLAP>
920.678

> <PUBCHEM_SHAPE_VOLUME>
226.6

> <PUBCHEM_COORDINATE_TYPE>
2
5
10

$$$$
