49830593
  -OEChem-10052120433D

 53 56  0     0  0  0  0  0  0999 V2000
   -8.8772   -1.8005    1.2353 F   0  0  0  0  0  0  0  0  0  0  0  0
  -10.0386   -0.4493   -0.0107 F   0  0  0  0  0  0  0  0  0  0  0  0
   -9.0714    0.2866    1.7922 F   0  0  0  0  0  0  0  0  0  0  0  0
   -2.5836    0.6096   -1.4052 O   0  0  0  0  0  0  0  0  0  0  0  0
    6.6624    2.1174    0.3835 N   0  0  0  0  0  0  0  0  0  0  0  0
    4.6349   -0.1978    0.2514 N   0  0  0  0  0  0  0  0  0  0  0  0
    8.2896    0.5395   -0.0199 N   0  0  0  0  0  0  0  0  0  0  0  0
   -1.7186    0.1220    0.7170 N   0  0  0  0  0  0  0  0  0  0  0  0
    5.6569   -2.6056   -0.2404 N   0  0  0  0  0  0  0  0  0  0  0  0
    7.8602   -1.7915   -0.3401 N   0  0  0  0  0  0  0  0  0  0  0  0
   -3.9975    0.0072    0.3574 N   0  0  0  0  0  0  0  0  0  0  0  0
    4.3601    2.1828   -0.4074 C   0  0  0  0  0  0  0  0  0  0  0  0
    5.3561    2.6743    0.6255 C   0  0  0  0  0  0  0  0  0  0  0  0
    3.8684    0.8203    0.0218 C   0  0  0  0  0  0  0  0  0  0  0  0
    2.4026    0.6376    0.2052 C   0  0  0  0  0  0  0  0  0  0  0  0
    6.0266   -0.2385    0.0771 C   0  0  0  0  0  0  0  0  0  0  0  0
    6.9622    0.7955    0.1526 C   0  0  0  0  0  0  0  0  0  0  0  0
    1.5351    0.8455   -0.8672 C   0  0  0  0  0  0  0  0  0  0  0  0
    1.8961    0.2581    1.4483 C   0  0  0  0  0  0  0  0  0  0  0  0
    6.5565   -1.5074   -0.1658 C   0  0  0  0  0  0  0  0  0  0  0  0
   -0.3449    0.2948    0.5464 C   0  0  0  0  0  0  0  0  0  0  0  0
    0.1615    0.6742   -0.6967 C   0  0  0  0  0  0  0  0  0  0  0  0
    0.5224    0.0868    1.6190 C   0  0  0  0  0  0  0  0  0  0  0  0
    8.6646   -0.7299   -0.2558 C   0  0  0  0  0  0  0  0  0  0  0  0
   -5.2777    0.0495   -0.2440 C   0  0  0  0  0  0  0  0  0  0  0  0
   -2.7547    0.2809   -0.2357 C   0  0  0  0  0  0  0  0  0  0  0  0
   -7.6745   -0.2092   -0.0850 C   0  0  0  0  0  0  0  0  0  0  0  0
   -6.4127   -0.2535    0.5081 C   0  0  0  0  0  0  0  0  0  0  0  0
    6.0947   -3.9387   -0.4839 C   0  0  0  0  0  0  0  0  0  0  0  0
   -5.4042    0.3969   -1.5889 C   0  0  0  0  0  0  0  0  0  0  0  0
   -7.8011    0.1381   -1.4301 C   0  0  0  0  0  0  0  0  0  0  0  0
   -6.6661    0.4411   -2.1820 C   0  0  0  0  0  0  0  0  0  0  0  0
   -8.8880   -0.5366    0.7179 C   0  0  0  0  0  0  0  0  0  0  0  0
    3.5152    2.8790   -0.4485 H   0  0  0  0  0  0  0  0  0  0  0  0
    4.7893    2.1165   -1.4133 H   0  0  0  0  0  0  0  0  0  0  0  0
    5.0333    2.4390    1.6468 H   0  0  0  0  0  0  0  0  0  0  0  0
    5.4341    3.7652    0.5579 H   0  0  0  0  0  0  0  0  0  0  0  0
    7.4535    2.7515    0.4169 H   0  0  0  0  0  0  0  0  0  0  0  0
    1.9188    1.1373   -1.8416 H   0  0  0  0  0  0  0  0  0  0  0  0
    2.5611    0.0959    2.2926 H   0  0  0  0  0  0  0  0  0  0  0  0
   -0.4424    0.8532   -1.5748 H   0  0  0  0  0  0  0  0  0  0  0  0
    0.1415   -0.2087    2.5933 H   0  0  0  0  0  0  0  0  0  0  0  0
   -2.0115   -0.1552    1.6506 H   0  0  0  0  0  0  0  0  0  0  0  0
    4.7177   -2.4537    0.1112 H   0  0  0  0  0  0  0  0  0  0  0  0
    9.7244   -0.9056   -0.3895 H   0  0  0  0  0  0  0  0  0  0  0  0
   -3.9867   -0.2539    1.3401 H   0  0  0  0  0  0  0  0  0  0  0  0
   -6.3179   -0.5249    1.5571 H   0  0  0  0  0  0  0  0  0  0  0  0
    5.2344   -4.6151   -0.5047 H   0  0  0  0  0  0  0  0  0  0  0  0
    6.6022   -4.0215   -1.4506 H   0  0  0  0  0  0  0  0  0  0  0  0
    6.7707   -4.2869    0.3040 H   0  0  0  0  0  0  0  0  0  0  0  0
   -4.5765    0.6445   -2.2377 H   0  0  0  0  0  0  0  0  0  0  0  0
   -8.7745    0.1779   -1.9112 H   0  0  0  0  0  0  0  0  0  0  0  0
   -6.7660    0.7112   -3.2293 H   0  0  0  0  0  0  0  0  0  0  0  0
  1 33  1  0  0  0  0
  2 33  1  0  0  0  0
  3 33  1  0  0  0  0
  4 26  2  0  0  0  0
  5 13  1  0  0  0  0
  5 17  1  0  0  0  0
  5 38  1  0  0  0  0
  6 14  2  0  0  0  0
  6 16  1  0  0  0  0
  7 17  1  0  0  0  0
  7 24  2  0  0  0  0
  8 21  1  0  0  0  0
  8 26  1  0  0  0  0
  8 43  1  0  0  0  0
  9 20  1  0  0  0  0
  9 29  1  0  0  0  0
  9 44  1  0  0  0  0
 10 20  2  0  0  0  0
 10 24  1  0  0  0  0
 11 25  1  0  0  0  0
 11 26  1  0  0  0  0
 11 46  1  0  0  0  0
 12 13  1  0  0  0  0
 12 14  1  0  0  0  0
 12 34  1  0  0  0  0
 12 35  1  0  0  0  0
 13 36  1  0  0  0  0
 13 37  1  0  0  0  0
 14 15  1  0  0  0  0
 15 18  2  0  0  0  0
 15 19  1  0  0  0  0
 16 17  2  0  0  0  0
 16 20  1  0  0  0  0
 18 22  1  0  0  0  0
 18 39  1  0  0  0  0
 19 23  2  0  0  0  0
 19 40  1  0  0  0  0
 21 22  2  0  0  0  0
 21 23  1  0  0  0  0
 22 41  1  0  0  0  0
 23 42  1  0  0  0  0
 24 45  1  0  0  0  0
 25 28  1  0  0  0  0
 25 30  2  0  0  0  0
 27 28  2  0  0  0  0
 27 31  1  0  0  0  0
 27 33  1  0  0  0  0
 28 47  1  0  0  0  0
 29 48  1  0  0  0  0
 29 49  1  0  0  0  0
 29 50  1  0  0  0  0
 30 32  1  0  0  0  0
 30 51  1  0  0  0  0
 31 32  2  0  0  0  0
 31 52  1  0  0  0  0
 32 53  1  0  0  0  0
M  END
> <PUBCHEM_COMPOUND_CID>
49830593

> <PUBCHEM_CONFORMER_RMSD>
1

> <PUBCHEM_CONFORMER_DIVERSEORDER>
1
24
33
17
21
32
38
12
5
15
41
34
16
14
11
8
30
28
23
2
31
13
18
39
26
3
22
10
29
40
4
19
9
6
35
27
25
37
7
20
36

> <PUBCHEM_MMFF94_PARTIAL_CHARGES>
46
1 -0.34
10 -0.62
11 -0.55
12 0.06
13 0.37
14 0.3
15 0.09
16 0.18
17 0.41
18 -0.15
19 -0.15
2 -0.34
20 0.41
21 0.12
22 -0.15
23 -0.15
24 0.47
25 0.12
26 0.69
27 -0.14
28 -0.15
29 0.37
3 -0.34
30 -0.15
31 -0.15
32 -0.15
33 1.16
38 0.4
39 0.15
4 -0.57
40 0.15
41 0.15
42 0.15
43 0.37
44 0.4
45 0.15
46 0.37
47 0.15
5 -0.87
51 0.15
52 0.15
53 0.15
6 -0.63
7 -0.62
8 -0.55
9 -0.87

> <PUBCHEM_EFFECTIVE_ROTOR_COUNT>
7.6

> <PUBCHEM_PHARMACOPHORE_FEATURES>
13
1 11 donor
1 4 acceptor
1 5 cation
1 5 donor
1 6 acceptor
1 8 donor
1 9 donor
3 7 10 24 cation
3 9 10 20 cation
6 15 18 19 21 22 23 rings
6 25 27 28 30 31 32 rings
6 7 10 16 17 20 24 rings
7 5 6 12 13 14 16 17 rings

> <PUBCHEM_HEAVY_ATOM_COUNT>
33

> <PUBCHEM_ATOM_DEF_STEREO_COUNT>
0

> <PUBCHEM_ATOM_UDEF_STEREO_COUNT>
0

> <PUBCHEM_BOND_DEF_STEREO_COUNT>
0

> <PUBCHEM_BOND_UDEF_STEREO_COUNT>
0

> <PUBCHEM_ISOTOPIC_ATOM_COUNT>
0

> <PUBCHEM_COMPONENT_COUNT>
1

> <PUBCHEM_CACTVS_TAUTO_COUNT>
60

> <PUBCHEM_CONFORMER_ID>
02F85AC100000001

> <PUBCHEM_MMFF94_ENERGY>
121.1286

> <PUBCHEM_FEATURE_SELFOVERLAP>
66.183

> <PUBCHEM_SHAPE_FINGERPRINT>
10066227 49 18339359673641110942
10299344 5 17775282772424695501
10951579 204 17314228852633457844
11135926 11 16343698808156366533
12082328 90 18411418389551356013
12089408 11 16845290570375288437
12133447 93 16878218659083997279
12144603 126 17489586796883128120
13533116 47 18201716241972383746
13617811 41 16008750191556364142
14118638 360 16370713808966580913
14251764 18 17489586766190369268
14251764 46 17561084717542261508
14294032 229 15503205666552802708
14344974 52 16660652886343603588
150020 25 18040432183664992799
15183329 4 18413100654646155790
15328684 2 16844738516680558106
15419008 47 17822281396886410165
15461852 350 15791733010345483841
15510794 2 18113900476532536691
15849732 13 18040150729720026935
1818759 1 17989210334667764166
19301679 30 17488753242720652046
19315958 150 18337390543485039324
20105231 36 18040714761979229003
20771845 140 16271922671815215566
21267235 1 17676207979249590421
21792934 111 12031788058845755266
22224240 67 10664100060303044572
22956985 138 16054372120469970948
232437 2 18343021112777293443
23576562 1 14996868613231327159
249057 3 18408321120687049580
2835820 82 18199189490927217718
335352 9 15864073186733762460
3633792 109 18410571756480357576
439807 62 17989205954128033424
44389302 135 16343703185076428446
45377200 153 18261955267218469435
5219985 9 17131830971279907777
5283156 175 17847063285585824080
57828716 16 17417535709361711674
6126387 218 10952056654655444515
636775 8 15357707418684812553
636783 117 17679291980865527234
67123 10 16443063911061145189

> <PUBCHEM_SHAPE_MULTIPOLES>
616.57
34.79
2.18
1.34
43.46
1.63
-0.12
10.36
0.34
-7.46
-0.15
3.01
-0.11
1.84

> <PUBCHEM_SHAPE_SELFOVERLAP>
1343.791

> <PUBCHEM_SHAPE_VOLUME>
332.7

> <PUBCHEM_COORDINATE_TYPE>
2
5
10

$$$$
