11526238
  -OEChem-10062121563D

 63 66  0     1  0  0  0  0  0999 V2000
    7.4560   -3.1595   -0.4728 Cl  0  0  0  0  0  0  0  0  0  0  0  0
    5.0584   -1.7832   -1.5156 F   0  0  0  0  0  0  0  0  0  0  0  0
   -2.7090   -2.7695   -2.3802 O   0  0  0  0  0  0  0  0  0  0  0  0
   -8.2578    0.0958    1.2003 O   0  0  0  0  0  0  0  0  0  0  0  0
   -2.4355    2.2649   -0.8830 O   0  0  0  0  0  0  0  0  0  0  0  0
   -4.7188   -0.8727    0.9387 N   0  0  0  0  0  0  0  0  0  0  0  0
   -2.0047   -1.0205    0.1436 N   0  0  2  0  0  0  0  0  0  0  0  0
   -2.6811   -4.1671   -0.5679 N   0  0  0  0  0  0  0  0  0  0  0  0
    1.9214    3.9843   -0.0351 N   0  0  0  0  0  0  0  0  0  0  0  0
    3.5851    0.2019   -0.2703 N   0  0  0  0  0  0  0  0  0  0  0  0
    3.8319    2.5186    0.0573 N   0  0  0  0  0  0  0  0  0  0  0  0
   -3.2052   -1.8091   -0.1820 C   0  0  0  0  0  0  0  0  0  0  0  0
   -4.0020   -2.1637    1.0815 C   0  0  0  0  0  0  0  0  0  0  0  0
   -4.3992   -0.9014   -0.5097 C   0  0  0  0  0  0  0  0  0  0  0  0
   -6.1460   -1.0271    1.1726 C   0  0  0  0  0  0  0  0  0  0  0  0
   -2.8451   -2.9340   -1.1643 C   0  0  0  0  0  0  0  0  0  0  0  0
   -1.4796   -0.4188   -1.0827 C   0  0  0  0  0  0  0  0  0  0  0  0
   -1.0062   -1.8956    0.7550 C   0  0  0  0  0  0  0  0  0  0  0  0
   -6.8680    0.2968    0.9791 C   0  0  0  0  0  0  0  0  0  0  0  0
   -0.5879    0.7458   -0.8068 C   0  0  0  0  0  0  0  0  0  0  0  0
   -1.1026    2.0344   -0.7190 C   0  0  0  0  0  0  0  0  0  0  0  0
    0.7773    0.5387   -0.6349 C   0  0  0  0  0  0  0  0  0  0  0  0
    1.6264    1.6284   -0.3745 C   0  0  0  0  0  0  0  0  0  0  0  0
   -0.2517    3.1130   -0.4598 C   0  0  0  0  0  0  0  0  0  0  0  0
    1.1184    2.9347   -0.2836 C   0  0  0  0  0  0  0  0  0  0  0  0
   -8.9892    1.3054    1.0545 C   0  0  0  0  0  0  0  0  0  0  0  0
    2.9997    1.4902   -0.1930 C   0  0  0  0  0  0  0  0  0  0  0  0
   -2.8770    3.6168   -0.7767 C   0  0  0  0  0  0  0  0  0  0  0  0
    3.2342    3.7193    0.1222 C   0  0  0  0  0  0  0  0  0  0  0  0
    4.7093   -0.3663    0.3494 C   0  0  0  0  0  0  0  0  0  0  0  0
    5.4364   -1.3652   -0.2979 C   0  0  0  0  0  0  0  0  0  0  0  0
    5.0992    0.0712    1.6152 C   0  0  0  0  0  0  0  0  0  0  0  0
    6.5534   -1.9267    0.3205 C   0  0  0  0  0  0  0  0  0  0  0  0
    6.2162   -0.4903    2.2336 C   0  0  0  0  0  0  0  0  0  0  0  0
    6.9433   -1.4893    1.5863 C   0  0  0  0  0  0  0  0  0  0  0  0
   -4.6412   -3.0523    0.9778 H   0  0  0  0  0  0  0  0  0  0  0  0
   -3.4715   -2.2608    2.0331 H   0  0  0  0  0  0  0  0  0  0  0  0
   -4.2151    0.0901   -0.9322 H   0  0  0  0  0  0  0  0  0  0  0  0
   -5.1492   -1.3879   -1.1499 H   0  0  0  0  0  0  0  0  0  0  0  0
   -6.3120   -1.3589    2.2060 H   0  0  0  0  0  0  0  0  0  0  0  0
   -6.6075   -1.7995    0.5420 H   0  0  0  0  0  0  0  0  0  0  0  0
   -2.2693   -0.0739   -1.7607 H   0  0  0  0  0  0  0  0  0  0  0  0
   -0.9182   -1.1444   -1.6890 H   0  0  0  0  0  0  0  0  0  0  0  0
   -0.2142   -1.2931    1.2134 H   0  0  0  0  0  0  0  0  0  0  0  0
   -0.5237   -2.5825    0.0499 H   0  0  0  0  0  0  0  0  0  0  0  0
   -1.4067   -2.4918    1.5806 H   0  0  0  0  0  0  0  0  0  0  0  0
   -6.4881    1.0432    1.6877 H   0  0  0  0  0  0  0  0  0  0  0  0
   -6.7200    0.6733   -0.0403 H   0  0  0  0  0  0  0  0  0  0  0  0
   -2.4436   -4.9823   -1.1236 H   0  0  0  0  0  0  0  0  0  0  0  0
   -2.7682   -4.3145    0.4319 H   0  0  0  0  0  0  0  0  0  0  0  0
    1.1657   -0.4737   -0.7080 H   0  0  0  0  0  0  0  0  0  0  0  0
   -0.6046    4.1374   -0.3819 H   0  0  0  0  0  0  0  0  0  0  0  0
   -8.6547    2.0469    1.7864 H   0  0  0  0  0  0  0  0  0  0  0  0
  -10.0465    1.0918    1.2331 H   0  0  0  0  0  0  0  0  0  0  0  0
   -8.8796    1.7005    0.0400 H   0  0  0  0  0  0  0  0  0  0  0  0
   -3.9609    3.6129   -0.9336 H   0  0  0  0  0  0  0  0  0  0  0  0
   -2.4464    4.2463   -1.5630 H   0  0  0  0  0  0  0  0  0  0  0  0
   -2.7050    4.0211    0.2267 H   0  0  0  0  0  0  0  0  0  0  0  0
    3.2552   -0.3357   -1.0675 H   0  0  0  0  0  0  0  0  0  0  0  0
    3.8756    4.5690    0.3224 H   0  0  0  0  0  0  0  0  0  0  0  0
    4.5417    0.8376    2.1468 H   0  0  0  0  0  0  0  0  0  0  0  0
    6.5180   -0.1521    3.2206 H   0  0  0  0  0  0  0  0  0  0  0  0
    7.8111   -1.9180    2.0810 H   0  0  0  0  0  0  0  0  0  0  0  0
  1 33  1  0  0  0  0
  2 31  1  0  0  0  0
  3 16  2  0  0  0  0
  4 19  1  0  0  0  0
  4 26  1  0  0  0  0
  5 21  1  0  0  0  0
  5 28  1  0  0  0  0
  6 13  1  0  0  0  0
  6 14  1  0  0  0  0
  6 15  1  0  0  0  0
  7 12  1  0  0  0  0
  7 17  1  0  0  0  0
  7 18  1  0  0  0  0
  8 16  1  0  0  0  0
  8 49  1  0  0  0  0
  8 50  1  0  0  0  0
  9 25  1  0  0  0  0
  9 29  2  0  0  0  0
 10 27  1  0  0  0  0
 10 30  1  0  0  0  0
 10 59  1  0  0  0  0
 11 27  2  0  0  0  0
 11 29  1  0  0  0  0
 12 13  1  0  0  0  0
 12 14  1  0  0  0  0
 12 16  1  0  0  0  0
 13 36  1  0  0  0  0
 13 37  1  0  0  0  0
 14 38  1  0  0  0  0
 14 39  1  0  0  0  0
 15 19  1  0  0  0  0
 15 40  1  0  0  0  0
 15 41  1  0  0  0  0
 17 20  1  0  0  0  0
 17 42  1  0  0  0  0
 17 43  1  0  0  0  0
 18 44  1  0  0  0  0
 18 45  1  0  0  0  0
 18 46  1  0  0  0  0
 19 47  1  0  0  0  0
 19 48  1  0  0  0  0
 20 21  1  0  0  0  0
 20 22  2  0  0  0  0
 21 24  2  0  0  0  0
 22 23  1  0  0  0  0
 22 51  1  0  0  0  0
 23 25  2  0  0  0  0
 23 27  1  0  0  0  0
 24 25  1  0  0  0  0
 24 52  1  0  0  0  0
 26 53  1  0  0  0  0
 26 54  1  0  0  0  0
 26 55  1  0  0  0  0
 28 56  1  0  0  0  0
 28 57  1  0  0  0  0
 28 58  1  0  0  0  0
 29 60  1  0  0  0  0
 30 31  2  0  0  0  0
 30 32  1  0  0  0  0
 31 33  1  0  0  0  0
 32 34  2  0  0  0  0
 32 61  1  0  0  0  0
 33 35  2  0  0  0  0
 34 35  1  0  0  0  0
 34 62  1  0  0  0  0
 35 63  1  0  0  0  0
M  END
> <PUBCHEM_COMPOUND_CID>
11526238

> <PUBCHEM_CONFORMER_RMSD>
1

> <PUBCHEM_CONFORMER_DIVERSEORDER>
2
126
42
141
137
90
20
13
132
77
38
8
33
129
130
73
83
122
100
58
25
138
140
10
32
124
23
34
78
27
11
63
114
21
17
7
41
79
117
3
85
101
91
102
9
43
120
131
144
40
22
119
66
113
97
15
81
16
128
48
107
72
14
65
6
135
30
139
133
52
89
64
99
19
44
108
60
121
98
39
93
56
5
76
74
123
86
110
112
61
116
53
57
68
45
70
54
49
105
4
35
12
118
95
47
59
55
106
103
18
62
26
115
145
28
31
142
67
29
111
127
125
143
84
36
92
37
94
96
24
80
82
109
1
71
46
88
75
134
87
50
69
104
136
51

> <PUBCHEM_MMFF94_PARTIAL_CHARGES>
43
1 -0.18
10 -0.6
11 -0.62
12 0.26
13 0.21
14 0.21
15 0.27
16 0.58
17 0.41
18 0.27
19 0.28
2 -0.19
20 -0.14
21 0.08
22 -0.15
24 -0.15
25 0.31
26 0.28
27 0.41
28 0.28
29 0.47
3 -0.57
30 0.1
31 0.19
32 -0.15
33 0.18
34 -0.15
35 -0.15
4 -0.56
49 0.37
5 -0.36
50 0.37
51 0.15
52 0.15
59 0.4
6 -0.69
60 0.15
61 0.15
62 0.15
63 0.15
7 -0.75
8 -0.8
9 -0.62

> <PUBCHEM_EFFECTIVE_ROTOR_COUNT>
10.8

> <PUBCHEM_PHARMACOPHORE_FEATURES>
13
1 10 donor
1 3 acceptor
1 4 acceptor
1 5 acceptor
1 6 cation
1 7 cation
1 8 donor
3 10 11 27 cation
3 9 11 29 cation
4 6 12 13 14 rings
6 20 21 22 23 24 25 rings
6 30 31 32 33 34 35 rings
6 9 11 23 25 27 29 rings

> <PUBCHEM_HEAVY_ATOM_COUNT>
35

> <PUBCHEM_ATOM_DEF_STEREO_COUNT>
0

> <PUBCHEM_ATOM_UDEF_STEREO_COUNT>
0

> <PUBCHEM_BOND_DEF_STEREO_COUNT>
0

> <PUBCHEM_BOND_UDEF_STEREO_COUNT>
0

> <PUBCHEM_ISOTOPIC_ATOM_COUNT>
0

> <PUBCHEM_COMPONENT_COUNT>
1

> <PUBCHEM_CACTVS_TAUTO_COUNT>
6

> <PUBCHEM_CONFORMER_ID>
00AFE05E00000002

> <PUBCHEM_MMFF94_ENERGY>
130.8915

> <PUBCHEM_FEATURE_SELFOVERLAP>
66.147

> <PUBCHEM_SHAPE_FINGERPRINT>
10010297 198 18047197628565757580
10190108 129 17603873265337006529
10622 236 17626647646561316599
10721379 63 17604729888148521420
11135609 12 18335692871641104632
11135926 11 17974279126278035164
11374522 58 17202500917672688742
11374522 79 16805591535482312834
11399510 152 17832997413968038227
12107183 9 18412830204982349931
12422481 6 18201725075871058615
13690498 29 18187365398837118988
13782708 43 17241610713998230795
14117953 113 18271815592099306814
14347424 109 18412828018454229920
14675019 173 17603308155073532085
14767858 380 9079117739689831643
14790565 3 17039519553142449181
15042514 8 18336262341043638284
15131766 46 16269930515701433552
15361156 5 18262805180620257342
15475509 84 18130796671601409968
15684393 108 17385731266636003142
15776043 110 18334019354787188195
16067689 68 16988552499147656519
16120349 21 18339086986320098617
20775530 9 18113886174897900988
21403212 168 18412545384727619691
21421861 104 18337669849419129340
22889206 1 17557133219018976192
23559900 14 18337375137110651940
3383291 50 18410849928732855295
44880168 125 18202273676708548262
463206 1 18260824956000320730
5104073 3 18197216069048661091
513202 73 18113618980545557169
56633871 153 18340767134471320463
57527293 21 17774708841152489454
6058803 2 17908986852912457933
9849439 229 10015575087644339140
9896288 288 18053384292959375401

> <PUBCHEM_SHAPE_MULTIPOLES>
667.39
20.59
4.93
1.5
7.45
2.17
-0.18
-11.77
-10.81
-1.1
1.53
-0.11
-0.81
-0.21

> <PUBCHEM_SHAPE_SELFOVERLAP>
1428.01

> <PUBCHEM_SHAPE_VOLUME>
373.5

> <PUBCHEM_COORDINATE_TYPE>
2
5
10

$$$$
