9928802
  -OEChem-10052120433D

 47 49  0     1  0  0  0  0  0999 V2000
   -0.3518   -4.0448   -1.7855 Cl  0  0  0  0  0  0  0  0  0  0  0  0
   -3.8999    3.1470    0.5193 O   0  0  0  0  0  0  0  0  0  0  0  0
    2.2378    1.5083    0.3856 N   0  0  0  0  0  0  0  0  0  0  0  0
    2.9752   -2.1280    0.1625 N   0  0  0  0  0  0  0  0  0  0  0  0
   -0.0380    0.8044    0.4453 N   0  0  0  0  0  0  0  0  0  0  0  0
   -2.3044    0.1129    0.5007 N   0  0  0  0  0  0  0  0  0  0  0  0
   -3.7098    2.4305   -1.6362 N   0  0  0  0  0  0  0  0  0  0  0  0
    2.7636    0.2288    0.8274 C   0  0  1  0  0  0  0  0  0  0  0  0
    2.7832   -0.7661   -0.3492 C   0  0  1  0  0  0  0  0  0  0  0  0
    4.1480    0.4343    1.4563 C   0  0  0  0  0  0  0  0  0  0  0  0
    3.8963   -0.4414   -1.3591 C   0  0  0  0  0  0  0  0  0  0  0  0
    5.2265    0.7580    0.4223 C   0  0  0  0  0  0  0  0  0  0  0  0
    5.2656   -0.2721   -0.7018 C   0  0  0  0  0  0  0  0  0  0  0  0
    0.9157    1.7732    0.2065 C   0  0  0  0  0  0  0  0  0  0  0  0
    0.5215    3.0575   -0.2296 C   0  0  0  0  0  0  0  0  0  0  0  0
   -1.3383    1.1196    0.2519 C   0  0  0  0  0  0  0  0  0  0  0  0
   -0.8263    3.3438   -0.4172 C   0  0  0  0  0  0  0  0  0  0  0  0
   -1.7802    2.3619   -0.1740 C   0  0  0  0  0  0  0  0  0  0  0  0
   -3.1892    2.6713   -0.3743 C   0  0  0  0  0  0  0  0  0  0  0  0
   -2.2601   -1.2868    0.4037 C   0  0  0  0  0  0  0  0  0  0  0  0
   -1.4254   -1.9023   -0.5341 C   0  0  0  0  0  0  0  0  0  0  0  0
   -3.0503   -2.0754    1.2455 C   0  0  0  0  0  0  0  0  0  0  0  0
   -1.3813   -3.2932   -0.6292 C   0  0  0  0  0  0  0  0  0  0  0  0
   -3.0062   -3.4663    1.1502 C   0  0  0  0  0  0  0  0  0  0  0  0
   -2.1719   -4.0752    0.2129 C   0  0  0  0  0  0  0  0  0  0  0  0
    2.1093   -0.1515    1.6242 H   0  0  0  0  0  0  0  0  0  0  0  0
    1.8263   -0.7563   -0.8829 H   0  0  0  0  0  0  0  0  0  0  0  0
    4.4415   -0.4711    2.0018 H   0  0  0  0  0  0  0  0  0  0  0  0
    4.1099    1.2420    2.1980 H   0  0  0  0  0  0  0  0  0  0  0  0
    3.6395    0.4852   -1.8884 H   0  0  0  0  0  0  0  0  0  0  0  0
    3.9541   -1.2240   -2.1260 H   0  0  0  0  0  0  0  0  0  0  0  0
    6.2041    0.7946    0.9168 H   0  0  0  0  0  0  0  0  0  0  0  0
    5.0559    1.7549   -0.0005 H   0  0  0  0  0  0  0  0  0  0  0  0
    5.9943    0.0427   -1.4577 H   0  0  0  0  0  0  0  0  0  0  0  0
    5.6202   -1.2328   -0.3105 H   0  0  0  0  0  0  0  0  0  0  0  0
    2.8929    2.1518   -0.0457 H   0  0  0  0  0  0  0  0  0  0  0  0
    2.2344   -2.3505    0.8266 H   0  0  0  0  0  0  0  0  0  0  0  0
    3.8482   -2.1979    0.6816 H   0  0  0  0  0  0  0  0  0  0  0  0
    1.2638    3.8284   -0.4203 H   0  0  0  0  0  0  0  0  0  0  0  0
   -1.1204    4.3348   -0.7526 H   0  0  0  0  0  0  0  0  0  0  0  0
   -3.1218    0.4615    0.9944 H   0  0  0  0  0  0  0  0  0  0  0  0
   -0.8146   -1.3019   -1.2048 H   0  0  0  0  0  0  0  0  0  0  0  0
   -3.7047   -1.6148    1.9815 H   0  0  0  0  0  0  0  0  0  0  0  0
   -3.1468    2.0486   -2.3896 H   0  0  0  0  0  0  0  0  0  0  0  0
   -4.6820    2.6306   -1.8464 H   0  0  0  0  0  0  0  0  0  0  0  0
   -3.6214   -4.0753    1.8063 H   0  0  0  0  0  0  0  0  0  0  0  0
   -2.1478   -5.1601    0.1503 H   0  0  0  0  0  0  0  0  0  0  0  0
  1 23  1  0  0  0  0
  2 19  2  0  0  0  0
  3  8  1  0  0  0  0
  3 14  1  0  0  0  0
  3 36  1  0  0  0  0
  4  9  1  0  0  0  0
  4 37  1  0  0  0  0
  4 38  1  0  0  0  0
  5 14  2  0  0  0  0
  5 16  1  0  0  0  0
  6 16  1  0  0  0  0
  6 20  1  0  0  0  0
  6 41  1  0  0  0  0
  7 19  1  0  0  0  0
  7 44  1  0  0  0  0
  7 45  1  0  0  0  0
  8  9  1  0  0  0  0
  8 10  1  0  0  0  0
  8 26  1  0  0  0  0
  9 11  1  0  0  0  0
  9 27  1  0  0  0  0
 10 12  1  0  0  0  0
 10 28  1  0  0  0  0
 10 29  1  0  0  0  0
 11 13  1  0  0  0  0
 11 30  1  0  0  0  0
 11 31  1  0  0  0  0
 12 13  1  0  0  0  0
 12 32  1  0  0  0  0
 12 33  1  0  0  0  0
 13 34  1  0  0  0  0
 13 35  1  0  0  0  0
 14 15  1  0  0  0  0
 15 17  2  0  0  0  0
 15 39  1  0  0  0  0
 16 18  2  0  0  0  0
 17 18  1  0  0  0  0
 17 40  1  0  0  0  0
 18 19  1  0  0  0  0
 20 21  2  0  0  0  0
 20 22  1  0  0  0  0
 21 23  1  0  0  0  0
 21 42  1  0  0  0  0
 22 24  2  0  0  0  0
 22 43  1  0  0  0  0
 23 25  2  0  0  0  0
 24 25  1  0  0  0  0
 24 46  1  0  0  0  0
 25 47  1  0  0  0  0
M  END
> <PUBCHEM_COMPOUND_CID>
9928802

> <PUBCHEM_CONFORMER_RMSD>
1

> <PUBCHEM_CONFORMER_DIVERSEORDER>
1
598
431
499
626
546
741
427
3
76
211
591
108
618
538
299
555
349
381
107
370
423
26
304
185
510
347
592
609
769
383
25
558
206
285
443
698
87
417
375
645
181
300
203
33
325
759
265
421
629
635
191
160
225
705
476
41
472
716
156
250
706
239
96
189
342
354
519
11
500
345
768
186
781
209
309
142
67
45
190
714
208
366
91
221
134
82
222
506
138
725
113
47
692
391
318
15
133
121
154
627
43
454
549
334
520
727
6
508
62
50
396
494
176
31
123
313
193
482
412
685
28
65
30
539
68
343
764
21
587
699
365
466
159
127
14
210
55
137
197
22
617
64
147
187
53
711
152
424
223
608
16
131
102
420
188
149
479
578
428
2
280
42
563
241
5
496
18
4
49
40
346
164
126
272
202
69
556
100
12
330
350
572
341
477
85
19
37
118
139
10
7
13
9
544
98

> <PUBCHEM_MMFF94_PARTIAL_CHARGES>
33
1 -0.18
14 0.41
15 -0.15
16 0.41
17 -0.15
18 0.09
19 0.54
2 -0.57
20 0.1
21 -0.15
22 -0.15
23 0.18
24 -0.15
25 -0.15
3 -0.87
36 0.4
37 0.36
38 0.36
39 0.15
4 -0.99
40 0.15
41 0.4
42 0.15
43 0.15
44 0.37
45 0.37
46 0.15
47 0.15
5 -0.62
6 -0.6
7 -0.8
8 0.37
9 0.27

> <PUBCHEM_EFFECTIVE_ROTOR_COUNT>
6.2

> <PUBCHEM_PHARMACOPHORE_FEATURES>
11
1 2 acceptor
1 3 donor
1 4 cation
1 4 donor
1 6 cation
1 6 donor
1 7 donor
3 3 5 14 cation
6 20 21 22 23 24 25 rings
6 5 14 15 16 17 18 rings
6 8 9 10 11 12 13 rings

> <PUBCHEM_HEAVY_ATOM_COUNT>
25

> <PUBCHEM_ATOM_DEF_STEREO_COUNT>
0

> <PUBCHEM_ATOM_UDEF_STEREO_COUNT>
2

> <PUBCHEM_BOND_DEF_STEREO_COUNT>
0

> <PUBCHEM_BOND_UDEF_STEREO_COUNT>
0

> <PUBCHEM_ISOTOPIC_ATOM_COUNT>
0

> <PUBCHEM_COMPONENT_COUNT>
1

> <PUBCHEM_CACTVS_TAUTO_COUNT>
15

> <PUBCHEM_CONFORMER_ID>
0097806200000001

> <PUBCHEM_MMFF94_ENERGY>
78.7437

> <PUBCHEM_FEATURE_SELFOVERLAP>
55.822

> <PUBCHEM_SHAPE_FINGERPRINT>
10675989 125 17693368941640036784
107951 10 17532669935550730499
11014199 57 17836368516171028886
11069576 57 16329616610403140534
11135609 187 18266726996831549693
11578080 2 17700123593999117209
12553582 1 18122628528751588374
12788726 201 18187362164167764387
13140716 1 18122626325623075019
13726171 33 18195837191748493788
13785724 45 17905913696344009507
138480 1 16536794738797577451
14117953 113 18127696135047836159
14251757 5 18335990804351790004
14790565 3 17977953379904264841
14844126 61 18336529595478045354
1813 80 18048885383314459410
19319366 153 17531528663934927656
19591789 44 18192994820877174105
19930381 70 17401205573560722587
20028762 73 18342170095114729431
2255824 54 16608293334779556001
22849339 104 18337686238523305222
23557571 272 18342176670182138680
23559900 14 18339644418005279404
23598288 3 18041860483133424457
3298306 158 17835799703328064965
550186 72 17978504562122217512
59025328 239 17051863693030105399
6287921 2 17553767661228379002
7097593 13 17404030708954863947
9709674 26 18342167886715607336

> <PUBCHEM_SHAPE_MULTIPOLES>
485.58
8.58
5.79
1.27
10.45
0.75
0.2
1.44
-0.94
-7.77
1.49
-0.05
0.65
1.39

> <PUBCHEM_SHAPE_SELFOVERLAP>
1022.742

> <PUBCHEM_SHAPE_VOLUME>
271.1

> <PUBCHEM_COORDINATE_TYPE>
2
5
10

$$$$
