44269392
  -OEChem-10052115163D

 24 26  0     0  0  0  0  0  0999 V2000
    4.5736   -0.6760    0.0008 F   0  0  0  0  0  0  0  0  0  0  0  0
   -0.2393   -1.4043   -0.0009 N   0  0  0  0  0  0  0  0  0  0  0  0
   -3.5279    0.2661    0.0005 N   0  0  0  0  0  0  0  0  0  0  0  0
   -0.7800    0.7598   -0.0003 C   0  0  0  0  0  0  0  0  0  0  0  0
    0.6463    0.6431   -0.0003 C   0  0  0  0  0  0  0  0  0  0  0  0
   -1.3015   -0.5334   -0.0002 C   0  0  0  0  0  0  0  0  0  0  0  0
    0.9528   -0.7182   -0.0003 C   0  0  0  0  0  0  0  0  0  0  0  0
   -2.6686   -0.7789    0.0001 C   0  0  0  0  0  0  0  0  0  0  0  0
    1.7069    1.5733   -0.0003 C   0  0  0  0  0  0  0  0  0  0  0  0
   -1.6750    1.8412    0.0000 C   0  0  0  0  0  0  0  0  0  0  0  0
    2.2676   -1.1980    0.0000 C   0  0  0  0  0  0  0  0  0  0  0  0
    3.0269    1.1087   -0.0001 C   0  0  0  0  0  0  0  0  0  0  0  0
    3.3008   -0.2570    0.0004 C   0  0  0  0  0  0  0  0  0  0  0  0
   -3.0262    1.5217    0.0003 C   0  0  0  0  0  0  0  0  0  0  0  0
   -3.2564   -2.1481    0.0004 C   0  0  0  0  0  0  0  0  0  0  0  0
   -0.3203   -2.4117   -0.0011 H   0  0  0  0  0  0  0  0  0  0  0  0
    1.5093    2.6416   -0.0003 H   0  0  0  0  0  0  0  0  0  0  0  0
   -1.3389    2.8717    0.0001 H   0  0  0  0  0  0  0  0  0  0  0  0
    2.4820   -2.2614    0.0000 H   0  0  0  0  0  0  0  0  0  0  0  0
    3.8463    1.8223    0.0000 H   0  0  0  0  0  0  0  0  0  0  0  0
   -3.7734    2.3097    0.0006 H   0  0  0  0  0  0  0  0  0  0  0  0
   -2.9364   -2.6980    0.8909 H   0  0  0  0  0  0  0  0  0  0  0  0
   -4.3504   -2.1076    0.0003 H   0  0  0  0  0  0  0  0  0  0  0  0
   -2.9362   -2.6984   -0.8899 H   0  0  0  0  0  0  0  0  0  0  0  0
  1 13  1  0  0  0  0
  2  6  1  0  0  0  0
  2  7  1  0  0  0  0
  2 16  1  0  0  0  0
  3  8  2  0  0  0  0
  3 14  1  0  0  0  0
  4  5  1  0  0  0  0
  4  6  2  0  0  0  0
  4 10  1  0  0  0  0
  5  7  2  0  0  0  0
  5  9  1  0  0  0  0
  6  8  1  0  0  0  0
  7 11  1  0  0  0  0
  8 15  1  0  0  0  0
  9 12  2  0  0  0  0
  9 17  1  0  0  0  0
 10 14  2  0  0  0  0
 10 18  1  0  0  0  0
 11 13  2  0  0  0  0
 11 19  1  0  0  0  0
 12 13  1  0  0  0  0
 12 20  1  0  0  0  0
 14 21  1  0  0  0  0
 15 22  1  0  0  0  0
 15 23  1  0  0  0  0
 15 24  1  0  0  0  0
M  END
> <PUBCHEM_COMPOUND_CID>
44269392

> <PUBCHEM_CONFORMER_RMSD>
0.4

> <PUBCHEM_CONFORMER_DIVERSEORDER>
1

> <PUBCHEM_MMFF94_PARTIAL_CHARGES>
19
1 -0.19
10 -0.15
11 -0.15
12 -0.15
13 0.19
14 0.16
15 0.14
16 0.27
17 0.15
18 0.15
19 0.15
2 0.03
20 0.15
21 0.15
3 -0.62
6 -0.15
7 -0.15
8 0.17
9 -0.15

> <PUBCHEM_EFFECTIVE_ROTOR_COUNT>
0

> <PUBCHEM_PHARMACOPHORE_FEATURES>
6
1 2 cation
1 2 donor
1 3 acceptor
5 2 4 5 6 7 rings
6 3 4 6 8 10 14 rings
6 5 7 9 11 12 13 rings

> <PUBCHEM_HEAVY_ATOM_COUNT>
15

> <PUBCHEM_ATOM_DEF_STEREO_COUNT>
0

> <PUBCHEM_ATOM_UDEF_STEREO_COUNT>
0

> <PUBCHEM_BOND_DEF_STEREO_COUNT>
0

> <PUBCHEM_BOND_UDEF_STEREO_COUNT>
0

> <PUBCHEM_ISOTOPIC_ATOM_COUNT>
0

> <PUBCHEM_COMPONENT_COUNT>
1

> <PUBCHEM_CACTVS_TAUTO_COUNT>
2

> <PUBCHEM_CONFORMER_ID>
02A37F5000000001

> <PUBCHEM_MMFF94_ENERGY>
30.2037

> <PUBCHEM_FEATURE_SELFOVERLAP>
30.632

> <PUBCHEM_SHAPE_FINGERPRINT>
10062212 137 18410283696970817242
10608611 8 18411696590897986264
10922523 26 18273497857842783734
10967382 1 18338797793118000839
11132069 177 18411132528537187088
11769659 78 18409443717289378674
12032990 46 18337676437460903587
12251169 10 18410860927948733249
12932764 1 17458335312813261061
13140716 1 18411703196678831785
13380535 76 18340485556668173559
14144814 61 18410011022445087840
14325111 11 18410574002421270432
14790565 3 15595002162164383713
14965852 173 18410855455938722059
15196674 1 18410575123354798788
15219456 202 18342735251773888408
15442244 35 18194118517175734370
15536298 74 18342457071411640040
16945 1 18266740190680152805
17802600 8 18411412908270954276
17804303 29 18412548704030236852
18186145 218 18040990752361369110
18522853 276 18413668002651577376
19422 9 18334861644775499772
200 152 17988352737325753005
20510252 161 18271527593035261033
20871998 184 18202285835807994335
21267235 1 18410302418759627659
21501502 16 18409733988364457764
221490 88 18337116773299758674
2334 1 18338799025921463757
23402539 116 18412254043229595206
23402655 69 18197765619237271661
23463225 33 18408040689208089092
23559900 14 18270960125541154346
2748010 2 18411415150428408293
2871803 45 18263073461383704831
3312278 4 18412546487605416769
335352 9 18266458706897145717
474 4 16807022163324684996
5104073 3 18411418436115268376
528886 8 18339073800680595048
53812653 166 18341326704543527032
57096353 35 18264491861025885588
6333449 129 18411417289485541525
69090 78 18341045238357093989
7364860 26 18196652882856629550
8809292 202 18334298690458844907
9709674 26 18411706499577572206

> <PUBCHEM_SHAPE_MULTIPOLES>
291.46
6.56
1.99
0.6
2.3
0.01
0
-1.06
0
-1.12
0
-0.01
0.01
0

> <PUBCHEM_SHAPE_SELFOVERLAP>
659.346

> <PUBCHEM_SHAPE_VOLUME>
155.4

> <PUBCHEM_COORDINATE_TYPE>
2
5
10

$$$$
