44570884
  -OEChem-10062122023D

 59 63  0     0  0  0  0  0  0999 V2000
    2.0011   -2.7887    0.6197 S   0  0  0  0  0  0  0  0  0  0  0  0
    5.7436    0.4108   -2.3673 O   0  0  0  0  0  0  0  0  0  0  0  0
   -2.4650   -1.0700   -0.9196 N   0  0  0  0  0  0  0  0  0  0  0  0
    1.3618    1.2733    2.1478 N   0  0  0  0  0  0  0  0  0  0  0  0
   -3.4965    4.1227    0.6964 N   0  0  0  0  0  0  0  0  0  0  0  0
   -0.2042   -4.2783    0.6850 N   0  0  0  0  0  0  0  0  0  0  0  0
   -4.8441   -3.7572   -0.4670 N   0  0  0  0  0  0  0  0  0  0  0  0
   -0.3282   -1.9814   -0.1516 C   0  0  0  0  0  0  0  0  0  0  0  0
    3.0439   -0.3601   -0.0212 C   0  0  0  0  0  0  0  0  0  0  0  0
    3.4015    0.4459    1.0595 C   0  0  0  0  0  0  0  0  0  0  0  0
    1.8641   -1.1908    0.0271 C   0  0  0  0  0  0  0  0  0  0  0  0
   -2.7244    0.2431   -0.4612 C   0  0  0  0  0  0  0  0  0  0  0  0
   -2.9531    1.2802   -1.3728 C   0  0  0  0  0  0  0  0  0  0  0  0
   -1.7102   -2.1294   -0.3878 C   0  0  0  0  0  0  0  0  0  0  0  0
   -3.2093    2.5780   -0.8875 C   0  0  0  0  0  0  0  0  0  0  0  0
    2.5829    0.4852    2.3101 C   0  0  0  0  0  0  0  0  0  0  0  0
    0.5741   -0.8874   -0.3494 C   0  0  0  0  0  0  0  0  0  0  0  0
   -3.2273    2.7879    0.4931 C   0  0  0  0  0  0  0  0  0  0  0  0
    0.3389   -3.0820    0.3761 C   0  0  0  0  0  0  0  0  0  0  0  0
   -2.7482    0.4820    0.9115 C   0  0  0  0  0  0  0  0  0  0  0  0
    3.8308   -0.3719   -1.1729 C   0  0  0  0  0  0  0  0  0  0  0  0
   -3.0006    1.7610    1.4162 C   0  0  0  0  0  0  0  0  0  0  0  0
    4.5461    1.2403    0.9886 C   0  0  0  0  0  0  0  0  0  0  0  0
   -2.3151   -3.3452   -0.0849 C   0  0  0  0  0  0  0  0  0  0  0  0
   -3.4765    3.8323   -1.5041 C   0  0  0  0  0  0  0  0  0  0  0  0
   -2.9227    0.9932   -2.8429 C   0  0  0  0  0  0  0  0  0  0  0  0
    4.9754    0.4221   -1.2438 C   0  0  0  0  0  0  0  0  0  0  0  0
   -3.6485    4.7621   -0.5046 C   0  0  0  0  0  0  0  0  0  0  0  0
    5.3331    1.2283   -0.1630 C   0  0  0  0  0  0  0  0  0  0  0  0
   -1.5289   -4.3573    0.4364 C   0  0  0  0  0  0  0  0  0  0  0  0
    1.6559    2.7013    2.2635 C   0  0  0  0  0  0  0  0  0  0  0  0
    0.3613    0.8758    3.1376 C   0  0  0  0  0  0  0  0  0  0  0  0
   -3.7112   -3.5726   -0.2958 C   0  0  0  0  0  0  0  0  0  0  0  0
    6.8999    1.2469   -2.3714 C   0  0  0  0  0  0  0  0  0  0  0  0
    2.3476   -0.5470    2.5993 H   0  0  0  0  0  0  0  0  0  0  0  0
    3.1807    0.8561    3.1554 H   0  0  0  0  0  0  0  0  0  0  0  0
    0.2902    0.0767   -0.7540 H   0  0  0  0  0  0  0  0  0  0  0  0
   -2.9758   -1.3236   -1.7599 H   0  0  0  0  0  0  0  0  0  0  0  0
   -2.5775   -0.3235    1.6224 H   0  0  0  0  0  0  0  0  0  0  0  0
    3.5619   -0.9956   -2.0231 H   0  0  0  0  0  0  0  0  0  0  0  0
   -3.0235    1.9458    2.4849 H   0  0  0  0  0  0  0  0  0  0  0  0
    4.8380    1.8745    1.8217 H   0  0  0  0  0  0  0  0  0  0  0  0
   -3.5391    4.0428   -2.5628 H   0  0  0  0  0  0  0  0  0  0  0  0
   -1.9779    0.5152   -3.1234 H   0  0  0  0  0  0  0  0  0  0  0  0
   -3.7555    0.3386   -3.1202 H   0  0  0  0  0  0  0  0  0  0  0  0
   -3.0084    1.9032   -3.4438 H   0  0  0  0  0  0  0  0  0  0  0  0
   -3.5705    4.5657    1.6018 H   0  0  0  0  0  0  0  0  0  0  0  0
   -3.8654    5.8204   -0.5413 H   0  0  0  0  0  0  0  0  0  0  0  0
    6.2080    1.8692   -0.1509 H   0  0  0  0  0  0  0  0  0  0  0  0
   -1.9615   -5.3236    0.6873 H   0  0  0  0  0  0  0  0  0  0  0  0
    2.3344    3.0370    1.4728 H   0  0  0  0  0  0  0  0  0  0  0  0
    2.0945    2.9605    3.2340 H   0  0  0  0  0  0  0  0  0  0  0  0
    0.7383    3.2885    2.1399 H   0  0  0  0  0  0  0  0  0  0  0  0
    0.7315    0.9854    4.1635 H   0  0  0  0  0  0  0  0  0  0  0  0
   -0.5444    1.4814    3.0388 H   0  0  0  0  0  0  0  0  0  0  0  0
    0.0617   -0.1673    2.9869 H   0  0  0  0  0  0  0  0  0  0  0  0
    6.6311    2.3058   -2.2929 H   0  0  0  0  0  0  0  0  0  0  0  0
    7.6191    0.9429   -1.6033 H   0  0  0  0  0  0  0  0  0  0  0  0
    7.3918    1.1132   -3.3405 H   0  0  0  0  0  0  0  0  0  0  0  0
  1 11  1  0  0  0  0
  1 19  1  0  0  0  0
  2 27  1  0  0  0  0
  2 34  1  0  0  0  0
  3 12  1  0  0  0  0
  3 14  1  0  0  0  0
  3 38  1  0  0  0  0
  4 16  1  0  0  0  0
  4 31  1  0  0  0  0
  4 32  1  0  0  0  0
  5 18  1  0  0  0  0
  5 28  1  0  0  0  0
  5 47  1  0  0  0  0
  6 19  2  0  0  0  0
  6 30  1  0  0  0  0
  7 33  3  0  0  0  0
  8 14  2  0  0  0  0
  8 17  1  0  0  0  0
  8 19  1  0  0  0  0
  9 10  2  0  0  0  0
  9 11  1  0  0  0  0
  9 21  1  0  0  0  0
 10 16  1  0  0  0  0
 10 23  1  0  0  0  0
 11 17  2  0  0  0  0
 12 13  2  0  0  0  0
 12 20  1  0  0  0  0
 13 15  1  0  0  0  0
 13 26  1  0  0  0  0
 14 24  1  0  0  0  0
 15 18  2  0  0  0  0
 15 25  1  0  0  0  0
 16 35  1  0  0  0  0
 16 36  1  0  0  0  0
 17 37  1  0  0  0  0
 18 22  1  0  0  0  0
 20 22  2  0  0  0  0
 20 39  1  0  0  0  0
 21 27  2  0  0  0  0
 21 40  1  0  0  0  0
 22 41  1  0  0  0  0
 23 29  2  0  0  0  0
 23 42  1  0  0  0  0
 24 30  2  0  0  0  0
 24 33  1  0  0  0  0
 25 28  2  0  0  0  0
 25 43  1  0  0  0  0
 26 44  1  0  0  0  0
 26 45  1  0  0  0  0
 26 46  1  0  0  0  0
 27 29  1  0  0  0  0
 28 48  1  0  0  0  0
 29 49  1  0  0  0  0
 30 50  1  0  0  0  0
 31 51  1  0  0  0  0
 31 52  1  0  0  0  0
 31 53  1  0  0  0  0
 32 54  1  0  0  0  0
 32 55  1  0  0  0  0
 32 56  1  0  0  0  0
 34 57  1  0  0  0  0
 34 58  1  0  0  0  0
 34 59  1  0  0  0  0
M  END
> <PUBCHEM_COMPOUND_CID>
44570884

> <PUBCHEM_CONFORMER_RMSD>
0.8

> <PUBCHEM_CONFORMER_DIVERSEORDER>
3
68
111
89
125
40
75
60
67
165
171
173
19
26
149
122
24
150
152
159
52
174
10
56
135
102
139
25
59
160
113
44
175
166
143
103
153
121
62
63
34
162
30
96
22
69
13
172
168
15
176
32
46
158
1
164
129
47
157
155
37
124
127
109
132
66
17
73
36
27
115
86
43
33
87
95
82
104
57
94
110
81
61
70
29
54
106
92
58
77
100
163
148
112
78
145
9
134
156
88
39
83
80
79
131
161
93
41
91
16
118
90
85
71
101
151
45
8
108
128
31
126
107
169
42
114
6
55
138
72
137
98
97
170
38
154
21
105
117
48
141
5
74
130
23
2
99
133
11
20
147
7
123
14
144
167
84
76
65
49
51
4
136
146
64
12
28
53
120
50
140
116
18
35
142
119

> <PUBCHEM_MMFF94_PARTIAL_CHARGES>
43
1 -0.08
10 -0.14
11 -0.01
12 0.1
13 -0.14
14 0.1
16 0.41
17 -0.15
18 -0.15
19 0.3
2 -0.36
20 -0.15
21 -0.15
22 -0.15
23 -0.15
24 0.07
25 -0.15
26 0.14
27 0.08
28 -0.3
29 -0.15
3 -0.6
30 0.16
31 0.27
32 0.27
33 0.48
34 0.28
37 0.15
38 0.4
39 0.15
4 -0.81
40 0.15
41 0.15
42 0.15
43 0.15
47 0.27
48 0.15
49 0.15
5 0.03
50 0.15
6 -0.57
7 -0.56
9 0.05

> <PUBCHEM_EFFECTIVE_ROTOR_COUNT>
6

> <PUBCHEM_PHARMACOPHORE_FEATURES>
13
1 2 acceptor
1 3 cation
1 3 donor
1 4 cation
1 5 cation
1 5 donor
1 6 acceptor
1 7 acceptor
5 1 8 11 17 19 rings
5 5 15 18 25 28 rings
6 12 13 15 18 20 22 rings
6 6 8 14 19 24 30 rings
6 9 10 21 23 27 29 rings

> <PUBCHEM_HEAVY_ATOM_COUNT>
34

> <PUBCHEM_ATOM_DEF_STEREO_COUNT>
0

> <PUBCHEM_ATOM_UDEF_STEREO_COUNT>
0

> <PUBCHEM_BOND_DEF_STEREO_COUNT>
0

> <PUBCHEM_BOND_UDEF_STEREO_COUNT>
0

> <PUBCHEM_ISOTOPIC_ATOM_COUNT>
0

> <PUBCHEM_COMPONENT_COUNT>
1

> <PUBCHEM_CACTVS_TAUTO_COUNT>
4

> <PUBCHEM_CONFORMER_ID>
02A8190400000003

> <PUBCHEM_MMFF94_ENERGY>
113.1231

> <PUBCHEM_FEATURE_SELFOVERLAP>
66.141

> <PUBCHEM_SHAPE_FINGERPRINT>
10165383 225 18268730358492895161
102385 1 18265330617080475071
10670039 82 18262242235135870414
10764073 3 17345219825213552155
10937287 8 18265330603935921623
10974685 15 18198596948263725936
11059048 146 18339640027689061284
11059845 2 18119780588152101706
11434127 23 18342450482984679844
1200032 147 17972331607269113016
12107183 9 18044356255145553362
12655364 74 16814385605496842628
12788726 201 18115578391512073411
13690498 29 18129389357352936886
14114206 34 17345196597329490840
14114211 68 18125454015894815053
14114211 80 18053960458674813705
14279260 333 17344652352638690030
151778 21 18048314440447921157
15419008 47 17985276406701996546
15513586 35 16880217743001627700
15961568 22 17546717618451620744
19319366 153 17910383988372853141
20764821 26 17836054815775225529
21033650 10 18188499094304528890
221357 26 17916030242637934338
22182313 1 17631731716193578464
22393880 68 17773858844721930768
23536364 44 17988374714958288426
23559900 14 17906454686013296510
25019877 29 15542065040805391776
283562 15 18335136540126986023
46194498 28 17842559827966576880
469060 322 18262245542150009395
508706 21 18271798047141934856
5223283 242 10806493345468484001
5252454 2 18339928099803837537
57527295 17 17846215523571683150
57724786 102 17828769434544210668
7808743 9 18335708225869099812
9849439 229 18195227950073060369

> <PUBCHEM_SHAPE_MULTIPOLES>
672.78
11.12
6.21
2.37
14.13
2.39
-0.34
-7.59
6.88
-10.26
-0.2
1.89
-1.94
0

> <PUBCHEM_SHAPE_SELFOVERLAP>
1481.133

> <PUBCHEM_SHAPE_VOLUME>
368.1

> <PUBCHEM_COORDINATE_TYPE>
2
5
10

$$$$
