44160269
  -OEChem-10062122033D

 58 61  0     1  0  0  0  0  0999 V2000
    3.4642    1.6497    0.0984 N   0  0  2  0  0  0  0  0  0  0  0  0
    6.7801    1.2432   -1.6200 N   0  0  0  0  0  0  0  0  0  0  0  0
   -2.7337   -0.6039    0.5881 N   0  0  0  0  0  0  0  0  0  0  0  0
    1.7559   -3.2350   -1.2680 N   0  0  0  0  0  0  0  0  0  0  0  0
   -4.6305    3.0215   -0.4100 N   0  0  0  0  0  0  0  0  0  0  0  0
   -6.0891   -1.5575   -0.3771 N   0  0  0  0  0  0  0  0  0  0  0  0
    5.8594    1.5292   -0.5211 C   0  0  1  0  0  0  0  0  0  0  0  0
    4.4070    1.4076   -1.0054 C   0  0  0  0  0  0  0  0  0  0  0  0
    6.1278    0.5717    0.6425 C   0  0  0  0  0  0  0  0  0  0  0  0
    5.0932    0.7789    1.7444 C   0  0  0  0  0  0  0  0  0  0  0  0
    3.6694    0.6913    1.1931 C   0  0  0  0  0  0  0  0  0  0  0  0
    2.0845    1.5872   -0.3839 C   0  0  0  0  0  0  0  0  0  0  0  0
    1.1680    2.4021    0.5275 C   0  0  0  0  0  0  0  0  0  0  0  0
   -0.2543    2.3568    0.0430 C   0  0  0  0  0  0  0  0  0  0  0  0
   -1.2721    1.8897    0.7829 C   0  0  0  0  0  0  0  0  0  0  0  0
   -2.6757    1.8154    0.3444 C   0  0  0  0  0  0  0  0  0  0  0  0
   -0.8137   -2.0671    0.8976 C   0  0  0  0  0  0  0  0  0  0  0  0
    0.3179   -2.7069    0.3538 C   0  0  0  0  0  0  0  0  0  0  0  0
   -1.5998   -1.2536    0.0735 C   0  0  0  0  0  0  0  0  0  0  0  0
   -3.3717    0.6151    0.2525 C   0  0  0  0  0  0  0  0  0  0  0  0
    0.6191   -2.5080   -0.9953 C   0  0  0  0  0  0  0  0  0  0  0  0
   -1.2750   -1.0730   -1.2694 C   0  0  0  0  0  0  0  0  0  0  0  0
   -0.1576   -1.6977   -1.8310 C   0  0  0  0  0  0  0  0  0  0  0  0
    1.3130   -3.5775    0.8799 C   0  0  0  0  0  0  0  0  0  0  0  0
   -1.1883   -2.2437    2.3374 C   0  0  0  0  0  0  0  0  0  0  0  0
   -3.3444    2.9805    0.0046 C   0  0  0  0  0  0  0  0  0  0  0  0
   -4.6964    0.6166   -0.1701 C   0  0  0  0  0  0  0  0  0  0  0  0
    2.1828   -3.8846   -0.1410 C   0  0  0  0  0  0  0  0  0  0  0  0
   -5.2747    1.8353   -0.4867 C   0  0  0  0  0  0  0  0  0  0  0  0
   -5.4651   -0.5833   -0.2844 C   0  0  0  0  0  0  0  0  0  0  0  0
    6.0379    2.5584   -0.1830 H   0  0  0  0  0  0  0  0  0  0  0  0
    4.2320    0.4168   -1.4480 H   0  0  0  0  0  0  0  0  0  0  0  0
    4.2427    2.1509   -1.7966 H   0  0  0  0  0  0  0  0  0  0  0  0
    6.0809   -0.4697    0.2973 H   0  0  0  0  0  0  0  0  0  0  0  0
    7.1345    0.7298    1.0477 H   0  0  0  0  0  0  0  0  0  0  0  0
    5.2475    1.7594    2.2125 H   0  0  0  0  0  0  0  0  0  0  0  0
    5.2335    0.0252    2.5276 H   0  0  0  0  0  0  0  0  0  0  0  0
    2.9851    0.8916    2.0240 H   0  0  0  0  0  0  0  0  0  0  0  0
    3.4739   -0.3354    0.8550 H   0  0  0  0  0  0  0  0  0  0  0  0
    1.7360    0.5509   -0.4791 H   0  0  0  0  0  0  0  0  0  0  0  0
    2.0175    2.0267   -1.3888 H   0  0  0  0  0  0  0  0  0  0  0  0
    7.7408    1.3704   -1.3049 H   0  0  0  0  0  0  0  0  0  0  0  0
    6.6331    1.9126   -2.3743 H   0  0  0  0  0  0  0  0  0  0  0  0
    1.2171    2.0444    1.5618 H   0  0  0  0  0  0  0  0  0  0  0  0
    1.4925    3.4503    0.5407 H   0  0  0  0  0  0  0  0  0  0  0  0
   -0.4443    2.7362   -0.9584 H   0  0  0  0  0  0  0  0  0  0  0  0
   -1.0809    1.4982    1.7794 H   0  0  0  0  0  0  0  0  0  0  0  0
   -3.2478   -1.1420    1.2791 H   0  0  0  0  0  0  0  0  0  0  0  0
   -1.8876   -0.4469   -1.9144 H   0  0  0  0  0  0  0  0  0  0  0  0
    0.0943   -1.5571   -2.8767 H   0  0  0  0  0  0  0  0  0  0  0  0
    1.3933   -3.9456    1.8933 H   0  0  0  0  0  0  0  0  0  0  0  0
    2.2096   -3.2811   -2.1699 H   0  0  0  0  0  0  0  0  0  0  0  0
   -1.2814   -1.2719    2.8341 H   0  0  0  0  0  0  0  0  0  0  0  0
   -2.1368   -2.7847    2.4205 H   0  0  0  0  0  0  0  0  0  0  0  0
   -0.4376   -2.8133    2.8930 H   0  0  0  0  0  0  0  0  0  0  0  0
   -2.8628    3.9528    0.0566 H   0  0  0  0  0  0  0  0  0  0  0  0
    3.0664   -4.5065   -0.1655 H   0  0  0  0  0  0  0  0  0  0  0  0
   -6.3053    1.9060   -0.8230 H   0  0  0  0  0  0  0  0  0  0  0  0
  1  8  1  0  0  0  0
  1 11  1  0  0  0  0
  1 12  1  0  0  0  0
  2  7  1  0  0  0  0
  2 42  1  0  0  0  0
  2 43  1  0  0  0  0
  3 19  1  0  0  0  0
  3 20  1  0  0  0  0
  3 48  1  0  0  0  0
  4 21  1  0  0  0  0
  4 28  1  0  0  0  0
  4 52  1  0  0  0  0
  5 26  1  0  0  0  0
  5 29  2  0  0  0  0
  6 30  3  0  0  0  0
  7  8  1  0  0  0  0
  7  9  1  0  0  0  0
  7 31  1  0  0  0  0
  8 32  1  0  0  0  0
  8 33  1  0  0  0  0
  9 10  1  0  0  0  0
  9 34  1  0  0  0  0
  9 35  1  0  0  0  0
 10 11  1  0  0  0  0
 10 36  1  0  0  0  0
 10 37  1  0  0  0  0
 11 38  1  0  0  0  0
 11 39  1  0  0  0  0
 12 13  1  0  0  0  0
 12 40  1  0  0  0  0
 12 41  1  0  0  0  0
 13 14  1  0  0  0  0
 13 44  1  0  0  0  0
 13 45  1  0  0  0  0
 14 15  2  0  0  0  0
 14 46  1  0  0  0  0
 15 16  1  0  0  0  0
 15 47  1  0  0  0  0
 16 20  1  0  0  0  0
 16 26  2  0  0  0  0
 17 18  1  0  0  0  0
 17 19  2  0  0  0  0
 17 25  1  0  0  0  0
 18 21  2  0  0  0  0
 18 24  1  0  0  0  0
 19 22  1  0  0  0  0
 20 27  2  0  0  0  0
 21 23  1  0  0  0  0
 22 23  2  0  0  0  0
 22 49  1  0  0  0  0
 23 50  1  0  0  0  0
 24 28  2  0  0  0  0
 24 51  1  0  0  0  0
 25 53  1  0  0  0  0
 25 54  1  0  0  0  0
 25 55  1  0  0  0  0
 26 56  1  0  0  0  0
 27 29  1  0  0  0  0
 27 30  1  0  0  0  0
 28 57  1  0  0  0  0
 29 58  1  0  0  0  0
M  END
> <PUBCHEM_COMPOUND_CID>
44160269

> <PUBCHEM_CONFORMER_RMSD>
1.2

> <PUBCHEM_CONFORMER_DIVERSEORDER>
3
70
37
63
28
50
105
54
82
84
62
98
96
115
45
4
67
80
102
73
59
12
68
86
87
40
104
103
31
95
90
25
64
13
91
52
110
43
76
32
89
27
53
116
14
51
111
113
19
99
23
72
11
69
41
20
92
57
66
9
101
71
6
21
78
112
35
7
81
65
100
47
88
42
61
24
83
36
16
1
44
109
114
74
55
97
48
85
10
60
17
56
94
77
8
33
15
34
38
75
2
39
46
5
30
58
26
29
93
79
108
49
107
22
106
18

> <PUBCHEM_MMFF94_PARTIAL_CHARGES>
39
1 -0.81
11 0.27
12 0.27
13 0.14
14 -0.29
15 -0.18
16 0.03
17 -0.14
19 0.1
2 -0.99
20 0.1
21 -0.15
22 -0.15
23 -0.15
24 -0.15
25 0.14
26 0.16
27 0.07
28 -0.3
29 0.16
3 -0.6
30 0.48
4 0.03
42 0.36
43 0.36
46 0.15
47 0.15
48 0.4
49 0.15
5 -0.62
50 0.15
51 0.15
52 0.27
56 0.15
57 0.15
58 0.15
6 -0.56
7 0.27
8 0.27

> <PUBCHEM_EFFECTIVE_ROTOR_COUNT>
7.2

> <PUBCHEM_PHARMACOPHORE_FEATURES>
13
1 1 cation
1 2 cation
1 2 donor
1 3 cation
1 3 donor
1 4 cation
1 4 donor
1 5 acceptor
1 6 acceptor
5 4 18 21 24 28 rings
6 1 7 8 9 10 11 rings
6 17 18 19 21 22 23 rings
6 5 16 20 26 27 29 rings

> <PUBCHEM_HEAVY_ATOM_COUNT>
30

> <PUBCHEM_ATOM_DEF_STEREO_COUNT>
1

> <PUBCHEM_ATOM_UDEF_STEREO_COUNT>
0

> <PUBCHEM_BOND_DEF_STEREO_COUNT>
1

> <PUBCHEM_BOND_UDEF_STEREO_COUNT>
0

> <PUBCHEM_ISOTOPIC_ATOM_COUNT>
0

> <PUBCHEM_COMPONENT_COUNT>
1

> <PUBCHEM_CACTVS_TAUTO_COUNT>
2

> <PUBCHEM_CONFORMER_ID>
02A1D50D00000003

> <PUBCHEM_MMFF94_ENERGY>
70.1553

> <PUBCHEM_FEATURE_SELFOVERLAP>
66.064

> <PUBCHEM_SHAPE_FINGERPRINT>
107951 10 17895197739669693226
12156800 1 16228339186051391090
12422481 6 18049978044854313026
13402501 40 18342179977148662076
14251757 5 18194977464012922700
14466204 15 18411978078849302136
14659021 117 17767384048943103488
14840074 17 17603590738035493972
16719943 64 18409730703336708784
20642791 35 17904764380443845345
20905425 154 18270683069895906917
21133410 230 17899450680563684587
21344244 246 18340195311716248533
23559900 14 17911231720580972175
3298306 158 18341327825282318136
3383291 50 18269551800757906298
338550 245 18409166585442424268
3411729 13 18265894657780600133
4093350 32 17274551914893667117
5265222 85 18338523066105462548
5385378 56 18269845232981383529
59755656 215 18411132559435388597
6138700 20 18412828001184260869
7288768 16 18040997353990263242
9981440 41 18335427875989470875

> <PUBCHEM_SHAPE_MULTIPOLES>
587.5
13.11
4.68
1.46
6.82
3
-0.17
-9.28
1.79
0.12
0.01
1.16
0.7
0.04

> <PUBCHEM_SHAPE_SELFOVERLAP>
1263.306

> <PUBCHEM_SHAPE_VOLUME>
319.4

> <PUBCHEM_COORDINATE_TYPE>
2
5
10

$$$$
