21700057
  -OEChem-10052115183D

 50 52  0     1  0  0  0  0  0999 V2000
    1.7796    1.8666    0.2244 S   0  0  0  0  0  0  0  0  0  0  0  0
   -8.3944   -1.7346   -1.1801 F   0  0  0  0  0  0  0  0  0  0  0  0
   -8.4436   -1.7864    0.9875 F   0  0  0  0  0  0  0  0  0  0  0  0
   -8.9267    0.0544   -0.0645 F   0  0  0  0  0  0  0  0  0  0  0  0
    2.0518    2.5780   -1.0116 O   0  0  0  0  0  0  0  0  0  0  0  0
    2.0232    2.5036    1.5062 O   0  0  0  0  0  0  0  0  0  0  0  0
    4.3845    0.8670   -2.1094 O   0  0  0  0  0  0  0  0  0  0  0  0
    6.9728   -4.3513    0.1754 O   0  0  0  0  0  0  0  0  0  0  0  0
    5.4700    3.1424    0.4335 O   0  0  0  0  0  0  0  0  0  0  0  0
    4.6270    1.4018   -0.8391 N   0  0  0  0  0  0  0  0  0  0  0  0
    4.1841    0.5528    0.2447 C   0  0  1  0  0  0  0  0  0  0  0  0
    2.6695    0.3393    0.2056 C   0  0  0  0  0  0  0  0  0  0  0  0
    4.9325   -0.7637    0.2265 C   0  0  0  0  0  0  0  0  0  0  0  0
    0.0836    1.3717    0.1740 C   0  0  0  0  0  0  0  0  0  0  0  0
   -0.5383    1.2130   -1.0527 C   0  0  0  0  0  0  0  0  0  0  0  0
   -0.5924    1.1519    1.3619 C   0  0  0  0  0  0  0  0  0  0  0  0
    6.1638   -0.8481    0.8514 C   0  0  0  0  0  0  0  0  0  0  0  0
    4.3676   -1.8512   -0.4155 C   0  0  0  0  0  0  0  0  0  0  0  0
   -2.5731    0.5969    0.0948 C   0  0  0  0  0  0  0  0  0  0  0  0
   -1.8768    0.8226   -1.0926 C   0  0  0  0  0  0  0  0  0  0  0  0
   -1.9308    0.7614    1.3220 C   0  0  0  0  0  0  0  0  0  0  0  0
   -3.9612    0.1912    0.0534 C   0  0  0  0  0  0  0  0  0  0  0  0
    6.8532   -2.0606    0.8335 C   0  0  0  0  0  0  0  0  0  0  0  0
    5.0570   -3.0636   -0.4332 C   0  0  0  0  0  0  0  0  0  0  0  0
    5.2241    2.6082   -0.6419 C   0  0  0  0  0  0  0  0  0  0  0  0
    6.2999   -3.1683    0.1913 C   0  0  0  0  0  0  0  0  0  0  0  0
   -4.4371   -0.5579   -1.0229 C   0  0  0  0  0  0  0  0  0  0  0  0
   -4.8240    0.5496    1.0892 C   0  0  0  0  0  0  0  0  0  0  0  0
   -6.6383   -0.5898   -0.0273 C   0  0  0  0  0  0  0  0  0  0  0  0
   -5.7756   -0.9483   -1.0631 C   0  0  0  0  0  0  0  0  0  0  0  0
   -6.1624    0.1590    1.0490 C   0  0  0  0  0  0  0  0  0  0  0  0
   -8.0694   -1.0075   -0.0703 C   0  0  0  0  0  0  0  0  0  0  0  0
    4.4114    1.0541    1.1952 H   0  0  0  0  0  0  0  0  0  0  0  0
    2.3333   -0.2521    1.0645 H   0  0  0  0  0  0  0  0  0  0  0  0
    2.3313   -0.1462   -0.7156 H   0  0  0  0  0  0  0  0  0  0  0  0
   -0.0126    1.3825   -1.9874 H   0  0  0  0  0  0  0  0  0  0  0  0
   -0.1049    1.2616    2.3258 H   0  0  0  0  0  0  0  0  0  0  0  0
    6.6032    0.0095    1.3522 H   0  0  0  0  0  0  0  0  0  0  0  0
    3.4197   -1.8217   -0.9377 H   0  0  0  0  0  0  0  0  0  0  0  0
   -2.3427    0.7351   -2.0703 H   0  0  0  0  0  0  0  0  0  0  0  0
   -2.4228    0.5658    2.2709 H   0  0  0  0  0  0  0  0  0  0  0  0
    7.8211   -2.1360    1.3215 H   0  0  0  0  0  0  0  0  0  0  0  0
    4.6181   -3.9183   -0.9413 H   0  0  0  0  0  0  0  0  0  0  0  0
    5.4832    3.0960   -1.5958 H   0  0  0  0  0  0  0  0  0  0  0  0
    5.2518    0.4744   -2.3069 H   0  0  0  0  0  0  0  0  0  0  0  0
   -3.7962   -0.8862   -1.8365 H   0  0  0  0  0  0  0  0  0  0  0  0
   -4.5062    1.1577    1.9317 H   0  0  0  0  0  0  0  0  0  0  0  0
   -6.1267   -1.5371   -1.9061 H   0  0  0  0  0  0  0  0  0  0  0  0
   -6.8290    0.4484    1.8572 H   0  0  0  0  0  0  0  0  0  0  0  0
    6.4447   -5.0075   -0.3109 H   0  0  0  0  0  0  0  0  0  0  0  0
  1  5  2  0  0  0  0
  1  6  2  0  0  0  0
  1 12  1  0  0  0  0
  1 14  1  0  0  0  0
  2 32  1  0  0  0  0
  3 32  1  0  0  0  0
  4 32  1  0  0  0  0
  7 10  1  0  0  0  0
  7 45  1  0  0  0  0
  8 26  1  0  0  0  0
  8 50  1  0  0  0  0
  9 25  2  0  0  0  0
 10 11  1  0  0  0  0
 10 25  1  0  0  0  0
 11 12  1  0  0  0  0
 11 13  1  0  0  0  0
 11 33  1  0  0  0  0
 12 34  1  0  0  0  0
 12 35  1  0  0  0  0
 13 17  2  0  0  0  0
 13 18  1  0  0  0  0
 14 15  2  0  0  0  0
 14 16  1  0  0  0  0
 15 20  1  0  0  0  0
 15 36  1  0  0  0  0
 16 21  2  0  0  0  0
 16 37  1  0  0  0  0
 17 23  1  0  0  0  0
 17 38  1  0  0  0  0
 18 24  2  0  0  0  0
 18 39  1  0  0  0  0
 19 20  2  0  0  0  0
 19 21  1  0  0  0  0
 19 22  1  0  0  0  0
 20 40  1  0  0  0  0
 21 41  1  0  0  0  0
 22 27  2  0  0  0  0
 22 28  1  0  0  0  0
 23 26  2  0  0  0  0
 23 42  1  0  0  0  0
 24 26  1  0  0  0  0
 24 43  1  0  0  0  0
 25 44  1  0  0  0  0
 27 30  1  0  0  0  0
 27 46  1  0  0  0  0
 28 31  2  0  0  0  0
 28 47  1  0  0  0  0
 29 30  2  0  0  0  0
 29 31  1  0  0  0  0
 29 32  1  0  0  0  0
 30 48  1  0  0  0  0
 31 49  1  0  0  0  0
M  END
> <PUBCHEM_COMPOUND_CID>
21700057

> <PUBCHEM_CONFORMER_RMSD>
1

> <PUBCHEM_CONFORMER_DIVERSEORDER>
2
13
22
21
19
25
18
7
1
9
10
24
6
11
23
16
3
8
15
20
5
14
12
4
17

> <PUBCHEM_MMFF94_PARTIAL_CHARGES>
45
1 1.2
10 -0.32
11 0.44
12 0.11
13 -0.14
14 -0.01
15 -0.15
16 -0.15
17 -0.15
18 -0.15
2 -0.34
20 -0.15
21 -0.15
23 -0.15
24 -0.15
25 0.57
26 0.08
27 -0.15
28 -0.15
29 -0.14
3 -0.34
30 -0.15
31 -0.15
32 1.16
36 0.15
37 0.15
38 0.15
39 0.15
4 -0.34
40 0.15
41 0.15
42 0.15
43 0.15
44 0.06
45 0.4
46 0.15
47 0.15
48 0.15
49 0.15
5 -0.65
50 0.45
6 -0.65
7 -0.44
8 -0.53
9 -0.57

> <PUBCHEM_EFFECTIVE_ROTOR_COUNT>
8

> <PUBCHEM_PHARMACOPHORE_FEATURES>
7
1 5 acceptor
1 6 acceptor
1 8 donor
1 9 acceptor
6 13 17 18 23 24 26 rings
6 14 15 16 19 20 21 rings
6 22 27 28 29 30 31 rings

> <PUBCHEM_HEAVY_ATOM_COUNT>
32

> <PUBCHEM_ATOM_DEF_STEREO_COUNT>
0

> <PUBCHEM_ATOM_UDEF_STEREO_COUNT>
1

> <PUBCHEM_BOND_DEF_STEREO_COUNT>
0

> <PUBCHEM_BOND_UDEF_STEREO_COUNT>
0

> <PUBCHEM_ISOTOPIC_ATOM_COUNT>
0

> <PUBCHEM_COMPONENT_COUNT>
1

> <PUBCHEM_CACTVS_TAUTO_COUNT>
2

> <PUBCHEM_CONFORMER_ID>
014B1DD900000002

> <PUBCHEM_MMFF94_ENERGY>
77.8705

> <PUBCHEM_FEATURE_SELFOVERLAP>
35.54

> <PUBCHEM_SHAPE_FINGERPRINT>
10 15 15410888574266620856
10066227 49 18408041810611707171
10299344 5 18272371996986259309
11386260 185 17022908985850899492
11719270 70 16773806904765170317
11991303 11 13840273615007236385
125118 31 9511192841300567431
12539765 74 11242239737535770241
12838863 1 18115018586245210290
13533116 47 18341894104120211248
1361 4 18337954605413367343
13668630 136 17822009839842759603
13673619 4 18187644678431627701
13782708 43 18259985937789578334
14118638 360 18412271648675932076
14251764 18 17917433172530789241
14347332 77 18410857620645145293
14359421 15 17677610861250005386
15119646 104 18342177756360231258
15152005 1 18123750847126374158
15183329 4 17632021935565713913
15198563 99 16660633022046183189
15320294 125 17775559836696899479
15328684 2 17632309942570270689
15352257 5 18334015029697364171
15475509 35 18131343103637176322
16994733 274 9511455607309877959
1768 124 18130787828611529822
19301679 30 18130793295872334148
1979834 28 16415203338954414340
19841028 212 18409448081050414146
20028762 73 18271243799494408014
20165401 70 18413385436490007726
2026 5 18335136441406171907
20771845 140 16845291627042790934
20771845 171 17822299016118312756
21130935 74 18411140247041596793
21307412 95 17531259335368647955
21344244 181 18040718069072509618
21344244 78 16415760825609650344
21360443 89 18116144469541934826
23522609 53 18055947417909895161
23559900 14 18189615124139824193
23569943 247 18263646173871890747
255183 451 18335426712854875140
33532 11 18411417332810046623
3472631 163 11025807478897909456
34797466 226 16950282948443585668
406291 66 18267019467114500562
4066623 53 15502378907625025454
4073 2 18054787557474271537
4149490 64 18261671588405590178
439807 62 18411699868084386779
44880568 143 17167857552554644325
474113 269 18201431446817245863
4756326 101 14491913501595654982
5104073 3 16557904697296355619
513202 73 18335701594714245669
54039377 194 18341333284929797062
5718773 13 18337107865527375082
57527295 17 17170111431512113344
6438161 24 18412258437276615955
6441014 3 17545317476467976722
70251023 43 18262799558898340144
9555976 147 17559686027220050129
96874 4 18272927207029415831
9831232 110 18339081463118958134
9962374 69 18339632438428984710

> <PUBCHEM_SHAPE_MULTIPOLES>
606.25
25.65
3.46
1.29
34.82
1.6
-0.11
20.9
0.5
-9.62
-0.05
0.3
-0.35
-1.34

> <PUBCHEM_SHAPE_SELFOVERLAP>
1305.863

> <PUBCHEM_SHAPE_VOLUME>
338.4

> <PUBCHEM_COORDINATE_TYPE>
2
5
10

$$$$
