18451149
  -OEChem-10052115183D

 52 55  0     0  0  0  0  0  0999 V2000
   -4.7971    1.7853    0.4685 S   0  0  0  0  0  0  0  0  0  0  0  0
    3.8314    0.4991   -1.1457 O   0  0  0  0  0  0  0  0  0  0  0  0
   -4.3754   -2.5803   -0.4397 N   0  0  0  0  0  0  0  0  0  0  0  0
    3.0430    0.0628    1.0171 N   0  0  0  0  0  0  0  0  0  0  0  0
   -2.0421   -2.3766   -0.1206 N   0  0  0  0  0  0  0  0  0  0  0  0
    5.3126   -0.0046    0.5926 N   0  0  0  0  0  0  0  0  0  0  0  0
   -9.8269    1.8045   -1.3583 N   0  0  0  0  0  0  0  0  0  0  0  0
   -2.5330    0.5909    0.4737 C   0  0  0  0  0  0  0  0  0  0  0  0
   -3.4925   -0.4220    0.1382 C   0  0  0  0  0  0  0  0  0  0  0  0
   -1.1038    0.4556    0.6129 C   0  0  0  0  0  0  0  0  0  0  0  0
   -4.7878    0.1016    0.1002 C   0  0  0  0  0  0  0  0  0  0  0  0
   -3.1055    1.8241    0.6767 C   0  0  0  0  0  0  0  0  0  0  0  0
   -3.3221   -1.7872   -0.1412 C   0  0  0  0  0  0  0  0  0  0  0  0
   -0.5514    0.1328    1.8524 C   0  0  0  0  0  0  0  0  0  0  0  0
   -0.2741    0.6472   -0.4918 C   0  0  0  0  0  0  0  0  0  0  0  0
   -5.8896   -0.7056   -0.2071 C   0  0  0  0  0  0  0  0  0  0  0  0
    1.6606    0.1937    0.8822 C   0  0  0  0  0  0  0  0  0  0  0  0
    0.8308    0.0018    1.9870 C   0  0  0  0  0  0  0  0  0  0  0  0
    1.1081    0.5165   -0.3572 C   0  0  0  0  0  0  0  0  0  0  0  0
   -5.6072   -2.0354   -0.4656 C   0  0  0  0  0  0  0  0  0  0  0  0
    6.5729    0.0504   -0.0484 C   0  0  0  0  0  0  0  0  0  0  0  0
    4.0458    0.2157    0.0286 C   0  0  0  0  0  0  0  0  0  0  0  0
   -7.2134   -0.1835   -0.2456 C   0  0  0  0  0  0  0  0  0  0  0  0
    8.9789   -0.1466    0.0460 C   0  0  0  0  0  0  0  0  0  0  0  0
    7.7368   -0.2010    0.6782 C   0  0  0  0  0  0  0  0  0  0  0  0
    6.6511    0.3557   -1.4072 C   0  0  0  0  0  0  0  0  0  0  0  0
    9.0571    0.1591   -1.3128 C   0  0  0  0  0  0  0  0  0  0  0  0
    7.8932    0.4100   -2.0394 C   0  0  0  0  0  0  0  0  0  0  0  0
   10.2238   -0.4159    0.8221 C   0  0  0  0  0  0  0  0  0  0  0  0
   -8.3302    0.2580   -0.2794 C   0  0  0  0  0  0  0  0  0  0  0  0
   -9.6939    0.7940   -0.3166 C   0  0  0  0  0  0  0  0  0  0  0  0
   -2.6188    2.7544    0.9382 H   0  0  0  0  0  0  0  0  0  0  0  0
   -1.1842   -0.0211    2.7233 H   0  0  0  0  0  0  0  0  0  0  0  0
   -0.6902    0.8979   -1.4649 H   0  0  0  0  0  0  0  0  0  0  0  0
    1.2477   -0.2505    2.9587 H   0  0  0  0  0  0  0  0  0  0  0  0
    1.6809    0.6800   -1.2587 H   0  0  0  0  0  0  0  0  0  0  0  0
   -6.3995   -2.7373   -0.7124 H   0  0  0  0  0  0  0  0  0  0  0  0
    3.3706   -0.1738    1.9504 H   0  0  0  0  0  0  0  0  0  0  0  0
   -1.2015   -1.8665    0.0893 H   0  0  0  0  0  0  0  0  0  0  0  0
   -1.9745   -3.3642   -0.3303 H   0  0  0  0  0  0  0  0  0  0  0  0
    5.3376   -0.2329    1.5831 H   0  0  0  0  0  0  0  0  0  0  0  0
    7.6772   -0.4378    1.7382 H   0  0  0  0  0  0  0  0  0  0  0  0
    5.7985    0.5625   -2.0379 H   0  0  0  0  0  0  0  0  0  0  0  0
   10.0189    0.2063   -1.8165 H   0  0  0  0  0  0  0  0  0  0  0  0
    7.9555    0.6483   -3.0973 H   0  0  0  0  0  0  0  0  0  0  0  0
   11.0103   -0.8268    0.1800 H   0  0  0  0  0  0  0  0  0  0  0  0
   10.0425   -1.1494    1.6152 H   0  0  0  0  0  0  0  0  0  0  0  0
   10.5909    0.5097    1.2763 H   0  0  0  0  0  0  0  0  0  0  0  0
   -9.9551    1.2323    0.6523 H   0  0  0  0  0  0  0  0  0  0  0  0
  -10.4044   -0.0157   -0.5126 H   0  0  0  0  0  0  0  0  0  0  0  0
   -9.2394    2.6074   -1.1349 H   0  0  0  0  0  0  0  0  0  0  0  0
  -10.7850    2.1527   -1.3689 H   0  0  0  0  0  0  0  0  0  0  0  0
  1 11  1  0  0  0  0
  1 12  1  0  0  0  0
  2 22  2  0  0  0  0
  3 13  2  0  0  0  0
  3 20  1  0  0  0  0
  4 17  1  0  0  0  0
  4 22  1  0  0  0  0
  4 38  1  0  0  0  0
  5 13  1  0  0  0  0
  5 39  1  0  0  0  0
  5 40  1  0  0  0  0
  6 21  1  0  0  0  0
  6 22  1  0  0  0  0
  6 41  1  0  0  0  0
  7 31  1  0  0  0  0
  7 51  1  0  0  0  0
  7 52  1  0  0  0  0
  8  9  1  0  0  0  0
  8 10  1  0  0  0  0
  8 12  2  0  0  0  0
  9 11  2  0  0  0  0
  9 13  1  0  0  0  0
 10 14  2  0  0  0  0
 10 15  1  0  0  0  0
 11 16  1  0  0  0  0
 12 32  1  0  0  0  0
 14 18  1  0  0  0  0
 14 33  1  0  0  0  0
 15 19  2  0  0  0  0
 15 34  1  0  0  0  0
 16 20  2  0  0  0  0
 16 23  1  0  0  0  0
 17 18  2  0  0  0  0
 17 19  1  0  0  0  0
 18 35  1  0  0  0  0
 19 36  1  0  0  0  0
 20 37  1  0  0  0  0
 21 25  1  0  0  0  0
 21 26  2  0  0  0  0
 23 30  3  0  0  0  0
 24 25  2  0  0  0  0
 24 27  1  0  0  0  0
 24 29  1  0  0  0  0
 25 42  1  0  0  0  0
 26 28  1  0  0  0  0
 26 43  1  0  0  0  0
 27 28  2  0  0  0  0
 27 44  1  0  0  0  0
 28 45  1  0  0  0  0
 29 46  1  0  0  0  0
 29 47  1  0  0  0  0
 29 48  1  0  0  0  0
 30 31  1  0  0  0  0
 31 49  1  0  0  0  0
 31 50  1  0  0  0  0
M  END
> <PUBCHEM_COMPOUND_CID>
18451149

> <PUBCHEM_CONFORMER_RMSD>
0.8

> <PUBCHEM_CONFORMER_DIVERSEORDER>
2
13
9
14
26
10
5
18
17
23
1
4
12
7
11
16
20
15
6
19
25
8
3
27
22
24
21

> <PUBCHEM_MMFF94_PARTIAL_CHARGES>
46
1 -0.08
10 0.05
11 0.04
12 -0.11
13 0.41
14 -0.15
15 -0.15
16 0.07
17 0.12
18 -0.15
19 -0.15
2 -0.57
20 0.16
21 0.12
22 0.69
23 -0.07
24 -0.14
25 -0.15
26 -0.15
27 -0.15
28 -0.15
29 0.14
3 -0.62
30 -0.2
31 0.47
32 0.15
33 0.15
34 0.15
35 0.15
36 0.15
37 0.15
38 0.37
39 0.4
4 -0.55
40 0.4
41 0.37
42 0.15
43 0.15
44 0.15
45 0.15
5 -0.9
51 0.36
52 0.36
6 -0.55
7 -0.99
8 -0.05

> <PUBCHEM_EFFECTIVE_ROTOR_COUNT>
5

> <PUBCHEM_PHARMACOPHORE_FEATURES>
11
1 2 acceptor
1 4 donor
1 5 donor
1 6 donor
1 7 cation
1 7 donor
3 3 5 13 cation
5 1 8 9 11 12 rings
6 10 14 15 17 18 19 rings
6 21 24 25 26 27 28 rings
6 3 9 11 13 16 20 rings

> <PUBCHEM_HEAVY_ATOM_COUNT>
31

> <PUBCHEM_ATOM_DEF_STEREO_COUNT>
0

> <PUBCHEM_ATOM_UDEF_STEREO_COUNT>
0

> <PUBCHEM_BOND_DEF_STEREO_COUNT>
0

> <PUBCHEM_BOND_UDEF_STEREO_COUNT>
0

> <PUBCHEM_ISOTOPIC_ATOM_COUNT>
0

> <PUBCHEM_COMPONENT_COUNT>
1

> <PUBCHEM_CACTVS_TAUTO_COUNT>
6

> <PUBCHEM_CONFORMER_ID>
01198ACD00000002

> <PUBCHEM_MMFF94_ENERGY>
90.3245

> <PUBCHEM_FEATURE_SELFOVERLAP>
55.936

> <PUBCHEM_SHAPE_FINGERPRINT>
10299344 5 18260267456507337134
10369192 42 14490464301159710947
106641 1 11672061947777091728
10674148 151 18411696603961892515
11315181 36 18335988639830639145
11828042 53 18052816949566270017
12082328 90 18060140899602310364
12089408 11 17967814972125218614
12144603 126 17894347761578897041
12236239 1 17967809471173945747
12643181 29 17988924504937288479
12758862 11 18060133280234940843
12838862 33 17561077003923676462
13885169 127 17489594441386702448
14040221 8 18343589524954039928
14068700 675 18408045117921615700
14251764 46 18410573985156732393
14294032 229 18263924346430518297
14856354 85 18410860987883252735
15065858 18 17489867146272283398
15183329 4 17603302679116257938
15247644 1 15339120147497463772
15392192 104 10952052256424889100
15419008 47 17346596366284730176
15419008 91 17846201251780896504
15510794 2 17346602950780232806
16087824 20 18337388241958172781
16728433 281 18119241767363151973
20105231 36 18335988653428074835
20609170 92 18338794487021948781
21150785 3 18114181943330606794
21360443 120 18113898243324344003
21360443 89 8718531819773433645
21792934 111 16056874737277314426
21792961 116 17346884416228258889
23559900 14 18057877129962652553
23576562 1 15069193435823873918
249057 3 18412263960319864732
3092352 35 17385442133726907339
335352 9 18412820292888816693
3383291 50 16773800320575342446
4017518 198 17704069604193243479
4325135 7 18187365433033222550
4625314 4 18201716305505849713
5265222 85 18129382760277985854
54039377 194 18188216524048627491
58083652 198 16200151040646461906
58902169 19 17894915183020769414
59521270 166 18336261259260031861
6126387 218 15051740772461345075
6691757 9 18271535239058086955
9663363 56 16845569812416963082
9962374 69 15195272145674983416

> <PUBCHEM_SHAPE_MULTIPOLES>
611.04
34.29
1.61
1.37
31.2
0.76
0.03
-2.5
11.47
-4.19
0.12
1.99
-0.25
-0.12

> <PUBCHEM_SHAPE_SELFOVERLAP>
1326.88

> <PUBCHEM_SHAPE_VOLUME>
334.2

> <PUBCHEM_COORDINATE_TYPE>
2
5
10

$$$$
